//*Spectre Lib Format
simulator lang=spectre  insensitive=yes

library l0065ll_io25_od33_v1p0
// * This file contains 1.2V, 1.8V, 2.5V and 2.5V overdrive to 3.3V corner model parameters.
// * Five corners are supported: TT, FF, SS, FNSP and SNFP.
// * This file should be used with the model parameter files 'l0065ll_io25_od33_v1p0_spe.mdl', 'l0065ll_io25_od33_v1p0_dio_spe.mdl',
// * 'l0065ll_io25_od33_v1p0_bjt_spe.mdl', 'l0065ll_io25_od33_v1p0_res_spe.mdl', 'l0065ll_io25_od33_v1p0_res_spe.ckt', 'l0065ll_io25_od33_v1p0_var_spe.ckt'
// * and 'l0065ll_io25_od33_v1p0_mom_spe.ckt'.
// * No part of this file can be released without the consent of SMIC.
// ******************
// * MOS Corner model
// ******************

section tt
SetOption1 options  gmin=1e-14
// *1.2V core NMOS
parameters dtoxe_n12ll = 0
parameters dtoxp_n12ll = 0
parameters dxl_n12ll = 0
parameters dxw_n12ll = 0
parameters dvth_n12ll = 0
parameters dcjs_n12ll = 0
parameters dcjsws_n12ll = 0
parameters dcjswgs_n12ll = 0
parameters dcgdo_n12ll = 0
parameters dcgso_n12ll = 0
parameters dcgdl_n12ll = 0
parameters dcgsl_n12ll = 0
parameters dcf_n12ll = 0
parameters dlvth0_n12ll = 0
parameters dpvth0_n12ll = 0
parameters dlu0_n12ll = 0
parameters dpu0_n12ll = 0
// *1.2V core PMOS
parameters dtoxe_p12ll = 0
parameters dtoxp_p12ll = 0
parameters dxl_p12ll = 0
parameters dxw_p12ll = 0
parameters dvth_p12ll = 0
parameters dcjs_p12ll = 0
parameters dcjsws_p12ll = 0
parameters dcjswgs_p12ll = 0
parameters dcgdo_p12ll = 0
parameters dcgso_p12ll = 0
parameters dcgdl_p12ll = 0
parameters dcgsl_p12ll = 0
parameters dcf_p12ll = 0
parameters dlvth0_p12ll = 0
parameters dpvth0_p12ll = 0
parameters dlu0_p12ll = 0
parameters dpu0_p12ll = 0
// *1.2V Native NMOS
parameters dtoxe_nt12ll = 0
parameters dtoxp_nt12ll = 0
parameters dxl_nt12ll = 0
parameters dxw_nt12ll = 0
parameters dvth_nt12ll = 0
parameters dcjs_nt12ll = 0
parameters dcjsws_nt12ll = 0
parameters dcjswgs_nt12ll = 0
parameters dcgdo_nt12ll = 0
parameters dcgso_nt12ll = 0
parameters dcgdl_nt12ll = 0
parameters dcgsl_nt12ll = 0
parameters dcf_nt12ll = 0
parameters dlvth0_nt12ll = 0
// *1.2V HVT core NMOS
parameters dtoxe_nhvt12ll = 0
parameters dtoxp_nhvt12ll = 0
parameters dxl_nhvt12ll = 0
parameters dxw_nhvt12ll = 0
parameters dvth_nhvt12ll = 0
parameters dcjs_nhvt12ll = 0
parameters dcjsws_nhvt12ll = 0
parameters dcjswgs_nhvt12ll = 0
parameters dcgdo_nhvt12ll = 0
parameters dcgso_nhvt12ll = 0
parameters dcgdl_nhvt12ll = 0
parameters dcgsl_nhvt12ll = 0
parameters dcf_nhvt12ll = 0
parameters dpvth0_nhvt12ll = 0
parameters dwvth0_nhvt12ll = 0
parameters dlvth0_nhvt12ll = 0
// *1.2V HVT core PMOS
parameters dtoxe_phvt12ll = 0
parameters dtoxp_phvt12ll = 0
parameters dxl_phvt12ll = 0
parameters dxw_phvt12ll = 0
parameters dvth_phvt12ll = 0
parameters dcjs_phvt12ll = 0
parameters dcjsws_phvt12ll = 0
parameters dcjswgs_phvt12ll = 0
parameters dcgdo_phvt12ll = 0
parameters dcgso_phvt12ll = 0
parameters dcgdl_phvt12ll = 0
parameters dcgsl_phvt12ll = 0
parameters dcf_phvt12ll = 0
parameters dwvth0_phvt12ll = 0
parameters dlvth0_phvt12ll = 0
parameters dpvth0_phvt12ll = 0
parameters dlu0_phvt12ll = 0
// *1.2V LVT core NMOS
parameters dtoxe_nlvt12ll = 0
parameters dtoxp_nlvt12ll = 0
parameters dxl_nlvt12ll = 0
parameters dxw_nlvt12ll = 0
parameters dvth_nlvt12ll = 0
parameters dcjs_nlvt12ll = 0
parameters dcjsws_nlvt12ll = 0
parameters dcjswgs_nlvt12ll = 0
parameters dcgdo_nlvt12ll = 0
parameters dcgso_nlvt12ll = 0
parameters dcgdl_nlvt12ll = 0
parameters dcgsl_nlvt12ll = 0
parameters dcf_nlvt12ll = 0
parameters dlvth0_nlvt12ll = 0
parameters dpvth0_nlvt12ll = 0
parameters dwvth0_nlvt12ll = 0
parameters dlu0_nlvt12ll = 0
// *1.2V LVT core PMOS
parameters dtoxe_plvt12ll = 0
parameters dtoxp_plvt12ll = 0
parameters dxl_plvt12ll = 0
parameters dxw_plvt12ll = 0
parameters dvth_plvt12ll = 0
parameters dcjs_plvt12ll = 0
parameters dcjsws_plvt12ll = 0
parameters dcjswgs_plvt12ll = 0
parameters dcgdo_plvt12ll = 0
parameters dcgso_plvt12ll = 0
parameters dcgdl_plvt12ll = 0
parameters dcgsl_plvt12ll = 0
parameters dcf_plvt12ll = 0
parameters dlvth0_plvt12ll = 0
parameters dpvth0_plvt12ll = 0
// *1.8V IO NMOS
parameters dtoxe_n18ll = 0
parameters dtoxp_n18ll = 0
parameters dxl_n18ll = 0
parameters dxw_n18ll = 0
parameters dvth_n18ll = 0
parameters dcjs_n18ll = 0
parameters dcjsws_n18ll = 0
parameters dcjswgs_n18ll = 0
parameters dcgdo_n18ll = 0
parameters dcgso_n18ll = 0
parameters dcf_n18ll = 0
parameters dcgdl_n18ll = 0
parameters dcgsl_n18ll = 0
parameters dlvth0_n18ll = 0
parameters dpvth0_n18ll = 0
parameters dlu0_n18ll = 0
parameters dpu0_n18ll = 0
// *1.8V IO PMOS
parameters dtoxe_p18ll = 0
parameters dtoxp_p18ll = 0
parameters dxl_p18ll = 0
parameters dxw_p18ll = 0
parameters dvth_p18ll = 0
parameters dcjs_p18ll = 0
parameters dcjsws_p18ll = 0
parameters dcjswgs_p18ll = 0
parameters dcgdo_p18ll = 0
parameters dcgso_p18ll = 0
parameters dcgdl_p18ll = 0
parameters dcgsl_p18ll = 0
parameters dcf_p18ll = 0
parameters dlvth0_p18ll = 0
parameters dpvth0_p18ll = 0
parameters dlu0_p18ll = 0
parameters dpu0_p18ll = 0
// *1.8V IO Native NMOS
parameters dtoxe_nt18ll = 0
parameters dtoxp_nt18ll = 0
parameters dxl_nt18ll = 0
parameters dxw_nt18ll = 0
parameters dvth_nt18ll = 0
parameters dcjs_nt18ll = 0
parameters dcjsws_nt18ll = 0
parameters dcjswgs_nt18ll = 0
parameters dcgdo_nt18ll = 0
parameters dcgso_nt18ll = 0
parameters dcgdl_nt18ll = 0
parameters dcgsl_nt18ll = 0
parameters dcf_nt18ll = 0
parameters dlvth0_nt18ll = 0
parameters dpvth0_nt18ll = 0
parameters dlu0_nt18ll = 0
parameters dpu0_nt18ll = 0
// *2.5V(OD 3.3V) IO NMOS
parameters dtoxe_nod33ll = 0
parameters dtoxp_nod33ll = 0
parameters dxl_nod33ll = 0
parameters dxw_nod33ll = 0
parameters dvth_nod33ll = 0
parameters dcjs_nod33ll = 0
parameters dcjsws_nod33ll = 0
parameters dcjswgs_nod33ll = 0
parameters dcgdo_nod33ll = 0
parameters dcgso_nod33ll = 0
parameters dcf_nod33ll = 0
parameters dcgdl_nod33ll = 0
parameters dcgsl_nod33ll = 0
parameters dlvth0_nod33ll = 0
parameters dpvth0_nod33ll = 0
parameters dlu0_nod33ll = 0
parameters dpu0_nod33ll = 0
// *2.5V(OD 3.3V) IO PMOS
parameters dtoxe_pod33ll = 0
parameters dtoxp_pod33ll = 0
parameters dxl_pod33ll = 0
parameters dxw_pod33ll = 0
parameters dvth_pod33ll = 0
parameters dcjs_pod33ll = 0
parameters dcjsws_pod33ll = 0
parameters dcjswgs_pod33ll = 0
parameters dcgdo_pod33ll = 0
parameters dcgso_pod33ll = 0
parameters dcgdl_pod33ll = 0
parameters dcgsl_pod33ll = 0
parameters dcf_pod33ll = 0
parameters dlvth0_pod33ll = 0
parameters dpvth0_pod33ll = 0
parameters dlu0_pod33ll = 0
parameters dpu0_pod33ll = 0
// *2.5V IO NMOS
parameters dtoxe_n25ll = 0
parameters dtoxp_n25ll = 0
parameters dxl_n25ll = 0
parameters dxw_n25ll = 0
parameters dvth_n25ll = 0
parameters dcjs_n25ll = 0
parameters dcjsws_n25ll = 0
parameters dcjswgs_n25ll = 0
parameters dcgdo_n25ll = 0
parameters dcgso_n25ll = 0
parameters dcf_n25ll = 0
parameters dcgdl_n25ll = 0
parameters dcgsl_n25ll = 0
parameters dlvth0_n25ll = 0
parameters dpvth0_n25ll = 0
parameters dlu0_n25ll = 0
parameters dpu0_n25ll = 0
// *2.5V IO PMOS
parameters dtoxe_p25ll = 0
parameters dtoxp_p25ll = 0
parameters dxl_p25ll = 0
parameters dxw_p25ll = 0
parameters dvth_p25ll = 0
parameters dcjs_p25ll = 0
parameters dcjsws_p25ll = 0
parameters dcjswgs_p25ll = 0
parameters dcgdo_p25ll = 0
parameters dcgso_p25ll = 0
parameters dcgdl_p25ll = 0
parameters dcgsl_p25ll = 0
parameters dcf_p25ll = 0
parameters dlvth0_p25ll = 0
parameters dpvth0_p25ll = 0
parameters dlu0_p25ll = 0
parameters dpu0_p25ll = 0
// *2.5V IO Native NMOS
parameters dtoxe_nt25ll = 0
parameters dtoxp_nt25ll = 0
parameters dxl_nt25ll = 0
parameters dxw_nt25ll = 0
parameters dvth_nt25ll = 0
parameters dcjs_nt25ll = 0
parameters dcjsws_nt25ll = 0
parameters dcjswgs_nt25ll = 0
parameters dcgdo_nt25ll = 0
parameters dcgso_nt25ll = 0
parameters dcgdl_nt25ll = 0
parameters dcgsl_nt25ll = 0
parameters dcf_nt25ll = 0
parameters dlvth0_nt25ll = 0
parameters du0_nt25ll = 0
include "l0065ll_io25_od33_v1p0_spe.mdl"
endsection tt


section ff
SetOption1 options  gmin=1e-14
// *1.2V core NMOS
parameters dtoxe_n12ll = -4.8e-11
parameters dtoxp_n12ll = -4.8e-11
parameters dxl_n12ll = -1e-9
parameters dxw_n12ll = 2e-9
parameters dvth_n12ll = -0.02
parameters dcjs_n12ll = -7.7e-5
parameters dcjsws_n12ll = -1.45e-12
parameters dcjswgs_n12ll = -1.33e-11
parameters dcgdo_n12ll = 3.5e-12
parameters dcgso_n12ll = 3.5e-12
parameters dcgdl_n12ll = 5e-12
parameters dcgsl_n12ll = 5e-12
parameters dcf_n12ll = 4.145e-12
parameters dlvth0_n12ll = -8.5e-10
parameters dpvth0_n12ll = -5.3e-16
parameters dlu0_n12ll = 1.3e-10
parameters dpu0_n12ll = 6.5e-17
// *1.2V core PMOS
parameters dtoxe_p12ll = -4.8e-11
parameters dtoxp_p12ll = -4.8e-11
parameters dxl_p12ll = -1e-9
parameters dxw_p12ll = 2e-9
parameters dvth_p12ll = 0.018
parameters dcjs_p12ll = -5.46e-5
parameters dcjsws_p12ll = -1.2e-12
parameters dcjswgs_p12ll = -1.42e-11
parameters dcgdo_p12ll = 2.725e-12
parameters dcgso_p12ll = 2.725e-12
parameters dcgdl_p12ll = 6.4e-12
parameters dcgsl_p12ll = 6.4e-12
parameters dcf_p12ll = 4.125e-12
parameters dlvth0_p12ll = 1.13e-9
parameters dpvth0_p12ll = 6.2e-16
parameters dlu0_p12ll = 7e-11
parameters dpu0_p12ll = 1.5e-17
// *1.2V Native NMOS
parameters dtoxe_nt12ll = -4.8e-11
parameters dtoxp_nt12ll = -4.8e-11
parameters dxl_nt12ll = -1e-9
parameters dxw_nt12ll = 2e-9
parameters dvth_nt12ll = -0.03
parameters dcjs_nt12ll = -1.525e-05
parameters dcjsws_nt12ll = -2.3e-12
parameters dcjswgs_nt12ll = -1.55e-12
parameters dcgdo_nt12ll = 6e-12
parameters dcgso_nt12ll = 6e-12
parameters dcgdl_nt12ll = 4e-12
parameters dcgsl_nt12ll = 4e-12
parameters dcf_nt12ll = 4.135e-12
parameters dlvth0_nt12ll = -6e-9
// *1.2V HVT core NMOS
parameters dtoxe_nhvt12ll = -4.8e-11
parameters dtoxp_nhvt12ll = -4.8e-11
parameters dxl_nhvt12ll = -1e-9
parameters dxw_nhvt12ll = 2e-9
parameters dvth_nhvt12ll = -0.016
parameters dcjs_nhvt12ll = -1.005e-4
parameters dcjsws_nhvt12ll = -2.55e-12
parameters dcjswgs_nhvt12ll = -1.51e-11
parameters dcgdo_nhvt12ll = 4e-12
parameters dcgso_nhvt12ll = 4e-12
parameters dcgdl_nhvt12ll = 5e-12
parameters dcgsl_nhvt12ll = 5e-12
parameters dcf_nhvt12ll = 4.125e-12
parameters dpvth0_nhvt12ll = -7e-16
parameters dwvth0_nhvt12ll = -5.0e-10
parameters dlvth0_nhvt12ll = -6.0e-10
// *1.2V HVT core PMOS
parameters dtoxe_phvt12ll = -4.8e-11
parameters dtoxp_phvt12ll = -4.8e-11
parameters dxl_phvt12ll = -1e-9
parameters dxw_phvt12ll = 2e-9
parameters dvth_phvt12ll = 0.016
parameters dcjs_phvt12ll = -5.46e-5
parameters dcjsws_phvt12ll = -1.22e-12
parameters dcjswgs_phvt12ll = -1.61e-11
parameters dcgdo_phvt12ll = 1.77e-12
parameters dcgso_phvt12ll = 1.77e-12
parameters dcgdl_phvt12ll = 6.0e-12
parameters dcgsl_phvt12ll = 6.0e-12
parameters dcf_phvt12ll = 4.08e-12
parameters dwvth0_phvt12ll = 1.5e-09
parameters dlvth0_phvt12ll = 5e-10
parameters dpvth0_phvt12ll = 8e-16
parameters dlu0_phvt12ll = 6e-12
// *1.2V LVT core NMOS
parameters dtoxe_nlvt12ll = -4.8e-11
parameters dtoxp_nlvt12ll = -4.8e-11
parameters dxl_nlvt12ll = -1e-9
parameters dxw_nlvt12ll = 2e-9
parameters dvth_nlvt12ll = -0.015
parameters dcjs_nlvt12ll = -6.0e-5
parameters dcjsws_nlvt12ll = -1.43e-12
parameters dcjswgs_nlvt12ll = -1.25e-11
parameters dcgdo_nlvt12ll = 6.5e-12
parameters dcgso_nlvt12ll = 6.5e-12
parameters dcgdl_nlvt12ll = 2.5e-12
parameters dcgsl_nlvt12ll = 2.5e-12
parameters dcf_nlvt12ll = 4.13e-12
parameters dlvth0_nlvt12ll = -7e-10
parameters dpvth0_nlvt12ll = -4e-16
parameters dwvth0_nlvt12ll = -6e-10
parameters dlu0_nlvt12ll = 1.3e-10
// *1.2V LVT core PMOS
parameters dtoxe_plvt12ll = -4.8e-11
parameters dtoxp_plvt12ll = -4.8e-11
parameters dxl_plvt12ll = -1e-9
parameters dxw_plvt12ll = 2e-9
parameters dvth_plvt12ll = 0.03
parameters dcjs_plvt12ll = -5.56e-5
parameters dcjsws_plvt12ll = -1.17e-12
parameters dcjswgs_plvt12ll = -1.01e-11
parameters dcgdo_plvt12ll = 4.5e-12
parameters dcgso_plvt12ll = 4.5e-12
parameters dcgdl_plvt12ll = 5.0e-12
parameters dcgsl_plvt12ll = 5.0e-12
parameters dcf_plvt12ll = 4.13e-12
parameters dlvth0_plvt12ll = 1.8e-09
parameters dpvth0_plvt12ll = 3.5e-16
// *1.8V IO NMOS
parameters dtoxe_n18ll = -7.5e-11
parameters dtoxp_n18ll = -7.5e-11
parameters dxl_n18ll = -3.0e-9
parameters dxw_n18ll = 4.5e-9
parameters dvth_n18ll = -0.038
parameters dcjs_n18ll = -5.91e-5
parameters dcjsws_n18ll = -1.625e-12
parameters dcjswgs_n18ll = -8.635e-12
parameters dcgdo_n18ll = 8.5e-12
parameters dcgso_n18ll = 8.5e-12
parameters dcf_n18ll = 3.7e-12
parameters dcgdl_n18ll = 5.0e-12
parameters dcgsl_n18ll = 5.0e-12
parameters dlvth0_n18ll = -1.0e-09
parameters dpvth0_n18ll = -1.05e-15
parameters dlu0_n18ll = 3.6e-10
parameters dpu0_n18ll = 7e-17
// *1.8V IO PMOS
parameters dtoxe_p18ll = -7.5e-11
parameters dtoxp_p18ll = -7.5e-11
parameters dxl_p18ll = -3.0e-9
parameters dxw_p18ll = 4.5e-9
parameters dvth_p18ll = 0.035
parameters dcjs_p18ll = -9.29e-05
parameters dcjsws_p18ll = -7.88e-14
parameters dcjswgs_p18ll = -1.321e-11
parameters dcgdo_p18ll = 8.75e-12
parameters dcgso_p18ll = 8.75e-12
parameters dcgdl_p18ll = 7.50e-12
parameters dcgsl_p18ll = 7.50e-12
parameters dcf_p18ll = 4.1e-12
parameters dlvth0_p18ll = 1.4e-09
parameters dpvth0_p18ll = 1e-15
parameters dlu0_p18ll = 9e-11
parameters dpu0_p18ll = 5e-17
// *1.8V IO Native NMOS
parameters dtoxe_nt18ll = -7.5e-11
parameters dtoxp_nt18ll = -7.5e-11
parameters dxl_nt18ll = -3.0e-9
parameters dxw_nt18ll = 4.5e-9
parameters dvth_nt18ll = -0.045
parameters dcjs_nt18ll = -1.54e-5
parameters dcjsws_nt18ll = -2.345e-12
parameters dcjswgs_nt18ll = -1.04e-11
parameters dcgdo_nt18ll = 8.5e-12
parameters dcgso_nt18ll = 8.5e-12
parameters dcgdl_nt18ll = 5.0e-12
parameters dcgsl_nt18ll = 5.0e-12
parameters dcf_nt18ll = 3.7e-12
parameters dlvth0_nt18ll = -5.0e-09
parameters dpvth0_nt18ll = -6.4e-15
parameters dlu0_nt18ll = 1.25e-09
parameters dpu0_nt18ll = 2.0e-16
// *2.5V(OD 3.3V) IO NMOS
parameters dtoxe_nod33ll = -1.0e-10
parameters dtoxp_nod33ll = -1.0e-10
parameters dxl_nod33ll = -4.5e-9
parameters dxw_nod33ll = 4.5e-9
parameters dvth_nod33ll = -0.034
parameters dcjs_nod33ll = -5.69e-5
parameters dcjsws_nod33ll = -2.48e-12
parameters dcjswgs_nod33ll = -1.05e-11
parameters dcgdo_nod33ll = 6.0e-12
parameters dcgso_nod33ll = 6.0e-12
parameters dcgdl_nod33ll = 1.21e-11
parameters dcgsl_nod33ll = 1.21e-11
parameters dcf_nod33ll = 3.17e-12
parameters dlvth0_nod33ll = -2.3e-09
parameters dpvth0_nod33ll = -3.5e-15
parameters dlu0_nod33ll = 2.05e-9
parameters dpu0_nod33ll = 7.5e-16
// *2.5V(OD 3.3V) IO PMOS
parameters dtoxe_pod33ll = -1.0e-10
parameters dtoxp_pod33ll = -1.0e-10
parameters dxl_pod33ll = -4.5e-9
parameters dxw_pod33ll = 4.5e-9
parameters dvth_pod33ll = 0.024
parameters dcjs_pod33ll = -6.03e-5
parameters dcjsws_pod33ll = -1.40e-12
parameters dcjswgs_pod33ll = -1.10e-11
parameters dcgdo_pod33ll = 7.00e-12
parameters dcgso_pod33ll = 7.00e-12
parameters dcgdl_pod33ll = 1.24e-11
parameters dcgsl_pod33ll = 1.24e-11
parameters dcf_pod33ll = 3.17e-12
parameters dlvth0_pod33ll = 3.1e-09
parameters dpvth0_pod33ll = 1.70e-15
parameters dlu0_pod33ll = 2.9e-10
parameters dpu0_pod33ll = 5.5e-17
// *2.5V IO NMOS
parameters dtoxe_n25ll = -1.0e-10
parameters dtoxp_n25ll = -1.0e-10
parameters dxl_n25ll = -4.5e-9
parameters dxw_n25ll = 4.5e-9
parameters dvth_n25ll = -0.034
parameters dcjs_n25ll = -5.69e-5
parameters dcjsws_n25ll = -2.48e-12
parameters dcjswgs_n25ll = -1.05e-11
parameters dcgdo_n25ll = 6.0e-12
parameters dcgso_n25ll = 6.0e-12
parameters dcgdl_n25ll = 1.21e-11
parameters dcgsl_n25ll = 1.21e-11
parameters dcf_n25ll = 3.17e-12
parameters dlvth0_n25ll = -2.3e-09
parameters dpvth0_n25ll = -3.5e-15
parameters dlu0_n25ll = 2.05e-9
parameters dpu0_n25ll = 7.5e-16
// *2.5V IO PMOS
parameters dtoxe_p25ll = -1.0e-10
parameters dtoxp_p25ll = -1.0e-10
parameters dxl_p25ll = -4.5e-9
parameters dxw_p25ll = 4.5e-9
parameters dvth_p25ll = 0.024
parameters dcjs_p25ll = -6.03e-5
parameters dcjsws_p25ll = -1.40e-12
parameters dcjswgs_p25ll = -1.10e-11
parameters dcgdo_p25ll = 7.00e-12
parameters dcgso_p25ll = 7.00e-12
parameters dcgdl_p25ll = 1.24e-11
parameters dcgsl_p25ll = 1.24e-11
parameters dcf_p25ll = 3.17e-12
parameters dlvth0_p25ll = 3.1e-09
parameters dpvth0_p25ll = 1.70e-15
parameters dlu0_p25ll = 2.9e-10
parameters dpu0_p25ll = 5.5e-17
// *2.5V IO Native NMOS
parameters dtoxe_nt25ll = -1.0e-10
parameters dtoxp_nt25ll = -1.0e-10
parameters dxl_nt25ll = -4.5e-9
parameters dxw_nt25ll = 4.5e-9
parameters dvth_nt25ll = -0.034
parameters dcjs_nt25ll = -1.74e-5
parameters dcjsws_nt25ll = -2.00e-12
parameters dcjswgs_nt25ll = -1.02e-11
parameters dcgdo_nt25ll = 1.00e-11
parameters dcgso_nt25ll = 1.00e-11
parameters dcgdl_nt25ll = 8.95e-12
parameters dcgsl_nt25ll = 8.95e-12
parameters dcf_nt25ll = 3.22e-12
parameters dlvth0_nt25ll = -3.1e-08
parameters du0_nt25ll = 1.0e-3
include "l0065ll_io25_od33_v1p0_spe.mdl"
endsection ff


section ss
SetOption1 options  gmin=1e-14
// *1.2V core NMOS
parameters dtoxe_n12ll = 4.8e-11
parameters dtoxp_n12ll = 4.8e-11
parameters dxl_n12ll = 1e-9
parameters dxw_n12ll = -2e-9
parameters dvth_n12ll = 0.02
parameters dcjs_n12ll = 7.7e-5
parameters dcjsws_n12ll = 1.45e-12
parameters dcjswgs_n12ll = 1.33e-11
parameters dcgdo_n12ll = -3.5e-12
parameters dcgso_n12ll = -3.5e-12
parameters dcgdl_n12ll = -5e-12
parameters dcgsl_n12ll = -5e-12
parameters dcf_n12ll = -4.145e-12
parameters dlvth0_n12ll = 8.5e-10
parameters dpvth0_n12ll = 5.3e-16
parameters dlu0_n12ll = -1.3e-10
parameters dpu0_n12ll = -6.5e-17
// *1.2V core PMOS
parameters dtoxe_p12ll = 4.8e-11
parameters dtoxp_p12ll = 4.8e-11
parameters dxl_p12ll = 1e-9
parameters dxw_p12ll = -2e-9
parameters dvth_p12ll = -0.018
parameters dcjs_p12ll = 5.46e-5
parameters dcjsws_p12ll = 1.2e-12
parameters dcjswgs_p12ll = 1.42e-11
parameters dcgdo_p12ll = -2.725e-12
parameters dcgso_p12ll = -2.725e-12
parameters dcgdl_p12ll = -6.4e-12
parameters dcgsl_p12ll = -6.4e-12
parameters dcf_p12ll = -4.125e-12
parameters dlvth0_p12ll = -1.13e-9
parameters dpvth0_p12ll = -6.2e-16
parameters dlu0_p12ll = -7e-11
parameters dpu0_p12ll = -1.5e-17
// *1.2V Native NMOS
parameters dtoxe_nt12ll = 4.8e-11
parameters dtoxp_nt12ll = 4.8e-11
parameters dxl_nt12ll = 1e-9
parameters dxw_nt12ll = -2e-9
parameters dvth_nt12ll = 0.03
parameters dcjs_nt12ll = 1.525e-05
parameters dcjsws_nt12ll = 2.3e-12
parameters dcjswgs_nt12ll = 1.55e-12
parameters dcgdo_nt12ll = -6e-12
parameters dcgso_nt12ll = -6e-12
parameters dcgdl_nt12ll = -4e-12
parameters dcgsl_nt12ll = -4e-12
parameters dcf_nt12ll = -4.135e-12
parameters dlvth0_nt12ll = 6e-9
// *1.2V HVT core NMOS
parameters dtoxe_nhvt12ll = 4.8e-11
parameters dtoxp_nhvt12ll = 4.8e-11
parameters dxl_nhvt12ll = 1e-9
parameters dxw_nhvt12ll = -2e-9
parameters dvth_nhvt12ll = 0.016
parameters dcjs_nhvt12ll = 1.005e-4
parameters dcjsws_nhvt12ll = 2.55e-12
parameters dcjswgs_nhvt12ll = 1.51e-11
parameters dcgdo_nhvt12ll = -4e-12
parameters dcgso_nhvt12ll = -4e-12
parameters dcgdl_nhvt12ll = -5e-12
parameters dcgsl_nhvt12ll = -5e-12
parameters dcf_nhvt12ll = -4.125e-12
parameters dpvth0_nhvt12ll = 7e-16
parameters dwvth0_nhvt12ll = 5.0e-10
parameters dlvth0_nhvt12ll = 6.0e-10
// *1.2V HVT core PMOS
parameters dtoxe_phvt12ll = 4.8e-11
parameters dtoxp_phvt12ll = 4.8e-11
parameters dxl_phvt12ll = 1e-9
parameters dxw_phvt12ll = -2e-9
parameters dvth_phvt12ll = -0.016
parameters dcjs_phvt12ll = 5.46e-5
parameters dcjsws_phvt12ll = 1.22e-12
parameters dcjswgs_phvt12ll = 1.61e-11
parameters dcgdo_phvt12ll = -1.77e-12
parameters dcgso_phvt12ll = -1.77e-12
parameters dcgdl_phvt12ll = -6.0e-12
parameters dcgsl_phvt12ll = -6.0e-12
parameters dcf_phvt12ll = -4.08e-12
parameters dwvth0_phvt12ll = -1.5e-09
parameters dlvth0_phvt12ll = -5e-10
parameters dpvth0_phvt12ll = -8e-16
parameters dlu0_phvt12ll = -6e-12
// *1.2V LVT core NMOS
parameters dtoxe_nlvt12ll = 4.8e-11
parameters dtoxp_nlvt12ll = 4.8e-11
parameters dxl_nlvt12ll = 1e-9
parameters dxw_nlvt12ll = -2e-9
parameters dvth_nlvt12ll = 0.015
parameters dcjs_nlvt12ll = 6.0e-5
parameters dcjsws_nlvt12ll = 1.43e-12
parameters dcjswgs_nlvt12ll = 1.25e-11
parameters dcgdo_nlvt12ll = -6.5e-12
parameters dcgso_nlvt12ll = -6.5e-12
parameters dcgdl_nlvt12ll = -2.5e-12
parameters dcgsl_nlvt12ll = -2.5e-12
parameters dcf_nlvt12ll = -4.13e-12
parameters dlvth0_nlvt12ll = 7e-10
parameters dpvth0_nlvt12ll = 4e-16
parameters dwvth0_nlvt12ll = 6e-10
parameters dlu0_nlvt12ll = -1.3e-10
// *1.2V LVT core PMOS
parameters dtoxe_plvt12ll = 4.8e-11
parameters dtoxp_plvt12ll = 4.8e-11
parameters dxl_plvt12ll = 1e-9
parameters dxw_plvt12ll = -2e-9
parameters dvth_plvt12ll = -0.03
parameters dcjs_plvt12ll = 5.56e-5
parameters dcjsws_plvt12ll = 1.17e-12
parameters dcjswgs_plvt12ll = 1.01e-11
parameters dcgdo_plvt12ll = -4.5e-12
parameters dcgso_plvt12ll = -4.5e-12
parameters dcgdl_plvt12ll = -5.0e-12
parameters dcgsl_plvt12ll = -5.0e-12
parameters dcf_plvt12ll = -4.13e-12
parameters dlvth0_plvt12ll = -1.8e-09
parameters dpvth0_plvt12ll = -3.5e-16
// *1.8V IO NMOS
parameters dtoxe_n18ll = 7.5e-11
parameters dtoxp_n18ll = 7.5e-11
parameters dxl_n18ll = 3.0e-9
parameters dxw_n18ll = -4.5e-9
parameters dvth_n18ll = 0.038
parameters dcjs_n18ll = 5.91e-5
parameters dcjsws_n18ll = 1.625e-12
parameters dcjswgs_n18ll = 8.635e-12
parameters dcgdo_n18ll = -8.5e-12
parameters dcgso_n18ll = -8.5e-12
parameters dcf_n18ll = -3.7e-12
parameters dcgdl_n18ll = -5.0e-12
parameters dcgsl_n18ll = -5.0e-12
parameters dlvth0_n18ll = 6e-10
parameters dpvth0_n18ll = 1.05e-15
parameters dlu0_n18ll = -3.5e-10
parameters dpu0_n18ll = -5e-17
// *1.8V IO PMOS
parameters dtoxe_p18ll = 7.5e-11
parameters dtoxp_p18ll = 7.5e-11
parameters dxl_p18ll = 3.0e-9
parameters dxw_p18ll = -4.5e-9
parameters dvth_p18ll = -0.035
parameters dcjs_p18ll = 9.29e-05
parameters dcjsws_p18ll = 7.88e-14
parameters dcjswgs_p18ll = 1.321e-11
parameters dcgdo_p18ll = -8.75e-12
parameters dcgso_p18ll = -8.75e-12
parameters dcgdl_p18ll = -7.50e-12
parameters dcgsl_p18ll = -7.50e-12
parameters dcf_p18ll = -4.1e-12
parameters dlvth0_p18ll = -1.1e-09
parameters dpvth0_p18ll = -1.00e-15
parameters dlu0_p18ll = -8e-11
parameters dpu0_p18ll = -4.2e-17
// *1.8V IO Native NMOS
parameters dtoxe_nt18ll = 7.5e-11
parameters dtoxp_nt18ll = 7.5e-11
parameters dxl_nt18ll = 3.0e-9
parameters dxw_nt18ll = -4.5e-9
parameters dvth_nt18ll = 0.045
parameters dcjs_nt18ll = 1.54e-05
parameters dcjsws_nt18ll = 2.345e-12
parameters dcjswgs_nt18ll = 1.04e-11
parameters dcgdo_nt18ll = -8.5e-12
parameters dcgso_nt18ll = -8.5e-12
parameters dcgdl_nt18ll = -5.0e-12
parameters dcgsl_nt18ll = -5.0e-12
parameters dcf_nt18ll = -3.7e-12
parameters dlvth0_nt18ll = 4.5e-09
parameters dpvth0_nt18ll = 6.1e-15
parameters dlu0_nt18ll = -1.15e-09
parameters dpu0_nt18ll = -2.0e-16
// *2.5V(OD 3.3V) IO NMOS
parameters dtoxe_nod33ll = 1.0e-10
parameters dtoxp_nod33ll = 1.0e-10
parameters dxl_nod33ll = 4.5e-9
parameters dxw_nod33ll = -4.5e-9
parameters dvth_nod33ll = 0.034
parameters dcjs_nod33ll = 5.69e-5
parameters dcjsws_nod33ll = 2.48e-12
parameters dcjswgs_nod33ll = 1.05e-11
parameters dcgdo_nod33ll = -6.0e-12
parameters dcgso_nod33ll = -6.0e-12
parameters dcgdl_nod33ll = -1.21e-11
parameters dcgsl_nod33ll = -1.21e-11
parameters dcf_nod33ll = -3.17e-12
parameters dlvth0_nod33ll = 2.0e-09
parameters dpvth0_nod33ll = 3.4e-15
parameters dlu0_nod33ll = -1.85e-9
parameters dpu0_nod33ll = -5.0e-16
// *2.5V(OD 3.3V) IO PMOS
parameters dtoxe_pod33ll = 1.0e-10
parameters dtoxp_pod33ll = 1.0e-10
parameters dxl_pod33ll = 4.5e-9
parameters dxw_pod33ll = -4.5e-9
parameters dvth_pod33ll = -0.024
parameters dcjs_pod33ll = 6.03e-5
parameters dcjsws_pod33ll = 1.40e-12
parameters dcjswgs_pod33ll = 1.10e-11
parameters dcgdo_pod33ll = -7.00e-12
parameters dcgso_pod33ll = -7.00e-12
parameters dcgdl_pod33ll = -1.24e-11
parameters dcgsl_pod33ll = -1.24e-11
parameters dcf_pod33ll = -3.17e-12
parameters dlvth0_pod33ll = -2.55e-9
parameters dpvth0_pod33ll = -1.55e-15
parameters dlu0_pod33ll = -2.5e-10
parameters dpu0_pod33ll = -4.0e-17
// *2.5V IO NMOS
parameters dtoxe_n25ll = 1.0e-10
parameters dtoxp_n25ll = 1.0e-10
parameters dxl_n25ll = 4.5e-9
parameters dxw_n25ll = -4.5e-9
parameters dvth_n25ll = 0.034
parameters dcjs_n25ll = 5.69e-5
parameters dcjsws_n25ll = 2.48e-12
parameters dcjswgs_n25ll = 1.05e-11
parameters dcgdo_n25ll = -6.0e-12
parameters dcgso_n25ll = -6.0e-12
parameters dcgdl_n25ll = -1.21e-11
parameters dcgsl_n25ll = -1.21e-11
parameters dcf_n25ll = -3.17e-12
parameters dlvth0_n25ll = 2.0e-09
parameters dpvth0_n25ll = 3.4e-15
parameters dlu0_n25ll = -1.85e-9
parameters dpu0_n25ll = -5.0e-16
// *2.5V IO PMOS
parameters dtoxe_p25ll = 1.0e-10
parameters dtoxp_p25ll = 1.0e-10
parameters dxl_p25ll = 4.5e-9
parameters dxw_p25ll = -4.5e-9
parameters dvth_p25ll = -0.024
parameters dcjs_p25ll = 6.03e-5
parameters dcjsws_p25ll = 1.40e-12
parameters dcjswgs_p25ll = 1.10e-11
parameters dcgdo_p25ll = -7.00e-12
parameters dcgso_p25ll = -7.00e-12
parameters dcgdl_p25ll = -1.24e-11
parameters dcgsl_p25ll = -1.24e-11
parameters dcf_p25ll = -3.17e-12
parameters dlvth0_p25ll = -2.55e-9
parameters dpvth0_p25ll = -1.55e-15
parameters dlu0_p25ll = -2.5e-10
parameters dpu0_p25ll = -4.0e-17
// *2.5V IO Native NMOS
parameters dtoxe_nt25ll = 1.0e-10
parameters dtoxp_nt25ll = 1.0e-10
parameters dxl_nt25ll = 4.5e-9
parameters dxw_nt25ll = -4.5e-9
parameters dvth_nt25ll = 0.034
parameters dcjs_nt25ll = 1.74e-5
parameters dcjsws_nt25ll = 2.00e-12
parameters dcjswgs_nt25ll = 1.02e-11
parameters dcgdo_nt25ll = -1.00e-11
parameters dcgso_nt25ll = -1.00e-11
parameters dcgdl_nt25ll = -8.95e-12
parameters dcgsl_nt25ll = -8.95e-12
parameters dcf_nt25ll = -3.22e-12
parameters dlvth0_nt25ll = 3.1e-08
parameters du0_nt25ll = -1.0e-3
include "l0065ll_io25_od33_v1p0_spe.mdl"
endsection ss


section fnsp
SetOption1 options  gmin=1e-14
// *1.2V core NMOS
parameters dtoxe_n12ll = 0
parameters dtoxp_n12ll = 0
parameters dxl_n12ll = 0
parameters dxw_n12ll = 0
parameters dvth_n12ll = -0.02
parameters dcjs_n12ll = -7.7e-5
parameters dcjsws_n12ll = -1.45e-12
parameters dcjswgs_n12ll = -1.33e-11
parameters dcgdo_n12ll = 0
parameters dcgso_n12ll = 0
parameters dcgdl_n12ll = 0
parameters dcgsl_n12ll = 0
parameters dcf_n12ll = 0
parameters dlvth0_n12ll = -8.5e-10
parameters dpvth0_n12ll = -5.3e-16
parameters dlu0_n12ll = 1.3e-10
parameters dpu0_n12ll = 6.5e-17
// *1.2V core PMOS
parameters dtoxe_p12ll = 0
parameters dtoxp_p12ll = 0
parameters dxl_p12ll = 0
parameters dxw_p12ll = 0
parameters dvth_p12ll = -0.018
parameters dcjs_p12ll = 5.46e-5
parameters dcjsws_p12ll = 1.2e-12
parameters dcjswgs_p12ll = 1.42e-11
parameters dcgdo_p12ll = 0
parameters dcgso_p12ll = 0
parameters dcgdl_p12ll = 0
parameters dcgsl_p12ll = 0
parameters dcf_p12ll = 0
parameters dlvth0_p12ll = -1.13e-9
parameters dpvth0_p12ll = -6.2e-16
parameters dlu0_p12ll = -7e-11
parameters dpu0_p12ll = -1.5e-17
// *1.2V Native NMOS
parameters dtoxe_nt12ll = 0
parameters dtoxp_nt12ll = 0
parameters dxl_nt12ll = 0
parameters dxw_nt12ll = 0
parameters dvth_nt12ll = -0.03
parameters dcjs_nt12ll = -1.525e-05
parameters dcjsws_nt12ll = -2.3e-12
parameters dcjswgs_nt12ll = -1.55e-12
parameters dcgdo_nt12ll = 0
parameters dcgso_nt12ll = 0
parameters dcgdl_nt12ll = 0
parameters dcgsl_nt12ll = 0
parameters dcf_nt12ll = 0
parameters dlvth0_nt12ll = -6e-9
// *1.2V HVT core NMOS
parameters dtoxe_nhvt12ll = 0
parameters dtoxp_nhvt12ll = 0
parameters dxl_nhvt12ll = 0
parameters dxw_nhvt12ll = 0
parameters dvth_nhvt12ll = -0.016
parameters dcjs_nhvt12ll = -1.005e-4
parameters dcjsws_nhvt12ll = -2.55e-12
parameters dcjswgs_nhvt12ll = -1.51e-11
parameters dcgdo_nhvt12ll = 0
parameters dcgso_nhvt12ll = 0
parameters dcgdl_nhvt12ll = 0
parameters dcgsl_nhvt12ll = 0
parameters dcf_nhvt12ll = 0
parameters dpvth0_nhvt12ll = -7e-16
parameters dwvth0_nhvt12ll = -5.0e-10
parameters dlvth0_nhvt12ll = -6.0e-10
// *1.2V HVT core PMOS
parameters dtoxe_phvt12ll = 0
parameters dtoxp_phvt12ll = 0
parameters dxl_phvt12ll = 0
parameters dxw_phvt12ll = 0
parameters dvth_phvt12ll = -0.016
parameters dcjs_phvt12ll = 5.46e-5
parameters dcjsws_phvt12ll = 1.22e-12
parameters dcjswgs_phvt12ll = 1.61e-11
parameters dcgdo_phvt12ll = 0
parameters dcgso_phvt12ll = 0
parameters dcgdl_phvt12ll = 0
parameters dcgsl_phvt12ll = 0
parameters dcf_phvt12ll = 0
parameters dwvth0_phvt12ll = -1.5e-09
parameters dlvth0_phvt12ll = -5e-10
parameters dpvth0_phvt12ll = -8e-16
parameters dlu0_phvt12ll = -6e-12
// *1.2V LVT core NMOS
parameters dtoxe_nlvt12ll = 0
parameters dtoxp_nlvt12ll = 0
parameters dxl_nlvt12ll = 0
parameters dxw_nlvt12ll = 0
parameters dvth_nlvt12ll = -0.015
parameters dcjs_nlvt12ll = -6.0e-5
parameters dcjsws_nlvt12ll = -1.43e-12
parameters dcjswgs_nlvt12ll = -1.25e-11
parameters dcgdo_nlvt12ll = 0
parameters dcgso_nlvt12ll = 0
parameters dcgdl_nlvt12ll = 0
parameters dcgsl_nlvt12ll = 0
parameters dcf_nlvt12ll = 0
parameters dlvth0_nlvt12ll = -7e-10
parameters dpvth0_nlvt12ll = -4e-16
parameters dwvth0_nlvt12ll = -6e-10
parameters dlu0_nlvt12ll = 1.3e-10
// *1.2V LVT core PMOS
parameters dtoxe_plvt12ll = 0
parameters dtoxp_plvt12ll = 0
parameters dxl_plvt12ll = 0
parameters dxw_plvt12ll = 0
parameters dvth_plvt12ll = -0.03
parameters dcjs_plvt12ll = 5.56e-5
parameters dcjsws_plvt12ll = 1.17e-12
parameters dcjswgs_plvt12ll = 1.01e-11
parameters dcgdo_plvt12ll = 0
parameters dcgso_plvt12ll = 0
parameters dcgdl_plvt12ll = 0
parameters dcgsl_plvt12ll = 0
parameters dcf_plvt12ll = 0
parameters dlvth0_plvt12ll = -1.8e-09
parameters dpvth0_plvt12ll = -3.5e-16
// *1.8V IO NMOS
parameters dtoxe_n18ll = 0
parameters dtoxp_n18ll = 0
parameters dxl_n18ll = 0
parameters dxw_n18ll = 0
parameters dvth_n18ll = -0.038
parameters dcjs_n18ll = -5.91e-5
parameters dcjsws_n18ll = -1.625e-12
parameters dcjswgs_n18ll = -8.635e-12
parameters dcgdo_n18ll = 0
parameters dcgso_n18ll = 0
parameters dcf_n18ll = 0
parameters dcgdl_n18ll = 0
parameters dcgsl_n18ll = 0
parameters dlvth0_n18ll = -1.0e-09