//*Spectre Model Format
simulator lang=spectre  insensitive=yes

// *
// * no part of this file can be released without the consent of smic.
// ************************************************************************************************************************************
// *    smic 65nm logic low leakage 1p10m(1p9m, 1p8m, 1p7m) salicide 1.2v/1.8v/2.5v(overdrive to 3.3V) spice model (for spectre only) *
// ************************************************************************************************************************************
// *
// * release version    : 1.0
// *
// * release date       : 6/15/2009
// *
// * simulation tool    : Cadence spectre V6.2.1
// *
// *   resistor         :
// *        *-----------------------------------------------------------*  
// *        |       Resistor Type                       |   1.2V/2.5V   | 
// *        |===========================================================|  
// *        | Silicide N+ Diffusion                     |     rndif     | 
// *        |-----------------------------------------------------------|  
// *        | Silicide P+ Diffusion                     |     rpdif     | 
// *        |-----------------------------------------------------------|  
// *        | Silicide N+ Poly                          |     rnpo      | 
// *        |-----------------------------------------------------------| 
// *        | Silicide N+ Poly (three terminal)         |    rnpo_3t    | 
// *        |-----------------------------------------------------------|  
// *        | Silicide P+ Poly                          |     rppo      | 
// *        |-----------------------------------------------------------|  
// *        | Silicide P+ Poly (three terminal)         |    rppo_3t    | 
// *        |-----------------------------------------------------------| 
// *        | NWell under STI                           |    rnwsti     | 
// *        |-----------------------------------------------------------| 
// *        | NWell under AA                            |    rnwaa      |      
// *        |-----------------------------------------------------------| 
// *        | Non-silicide N+ Diffusion                 |    rndifsab   | 
// *        |-----------------------------------------------------------|  
// *        | Non-silicide P+ Diffusion                 |    rpdifsab   | 
// *        |-----------------------------------------------------------| 
// *        | Non-silicide N+ Poly                      |    rnposab    | 
// *        |-----------------------------------------------------------|  
// *        | Non-silicide N+ Poly (three terminal)     |   rnposab_3t  | 
// *        |-----------------------------------------------------------| 
// *        | Non-silicide P+ Poly                      |    rpposab    | 
// *        |-----------------------------------------------------------|  
// *        | Non-silicide P+ Poly (three terminal)     |   rpposab_3t  | 
// *        |-----------------------------------------------------------|
// *        |          Metal 1                          |      rm1      | 
// *        |-----------------------------------------------------------|  
// *        |          Metal 2                          |      rm2      |
// *        |-----------------------------------------------------------|  
// *        |          Metal 3                          |      rm3      | 
// *        |-----------------------------------------------------------|  
// *        |          Metal 4                          |      rm4      | 
// *        |-----------------------------------------------------------|  
// *        |          Metal 5                          |      rm5      | 
// *        |-----------------------------------------------------------|  
// *        |          Metal 6                          |      rm6      | 
// *        |-----------------------------------------------------------|  
// *        |          Metal 7                          |      rm7      |
// *        |-----------------------------------------------------------|  
// *        |          Metal 8                          |      rm8      |
// *        |-----------------------------------------------------------|  
// *        |        top metal 1                        |      rtm1     |
// *        |-----------------------------------------------------------|
// *        |        top metal 2                        |      rtm2     |
// *        *-----------------------------------------------------------*
// *
// *   the valid temperature range is from -40c to 125c
// *
// ******************************************************************
// *                         resistor model                         *
// ******************************************************************
// ******************************************************************
// *                       silicide resistors                       *
// ******************************************************************
// ******************************************************************
// *                   silicide n+ diffusion resistance             *
// ******************************************************************
model rndif resistor
// *diffusion resistor 
//*+ coeffs = [6.53E-05  9.68E-05]
// *jc1a = 6.24E-05 jc1b = 6.25E-10
// *jc2a = 1.08E-08 jc2b = 1.16E-12
+tc1 = 2.00E-03 tc2 = -3.43E-08 
+etch = -9.80E-09+ddw_rndif 
+tnom = 25.0  rsh = 14.131+drsh_rndif
// ******************************************************************
// *                   silicide p+ diffusion resistance             *
// ******************************************************************
model rpdif resistor
// *diffusion resistor 
//*+ coeffs = [-5.19E-06  2.39E-04]
// *jc1a = -7.61E-06 jc1b = 4.49E-10
// *jc2a = 2.59E-08 jc2b = 1.35E-12
+tc1 = 2.49E-03 tc2 = -7.69E-08 
+etch = -1.29E-08+ddw_rpdif
+tnom = 25.0  rsh = 12.148+drsh_rpdif
// ******************************************************************
// *                  silicide n+ poly resistance                   *
// ******************************************************************
model rnpo resistor
// *poly resistor
//*+ coeffs = [9.11E-05  5.16E-04]
// *jc1a = -7.37E-05 jc1b = 3.60E-08
// *jc2a = 3.75E-08 jc2b = 8.48E-12
+tc1 = 2.14E-03 tc2 = -1.14E-07 
+etch = 4.90E-09+ddw_rnpo
+tnom = 25.0  rsh = 13.405+drsh_rnpo
// ******************************************************************
// *          silicide n+ poly resistance (three terminal)          *
// ******************************************************************
model rnpo_3t resistor
// *poly resistor
//*+ coeffs = [9.11E-05  5.16E-04]
// *jc1a = -7.37E-05 jc1b = 3.60E-08
// *jc2a = 3.75E-08 jc2b = 8.48E-12
+tc1 = 2.14E-03 tc2 = -1.14E-07 
+etch = 4.90E-09+ddw_rnpo_3t
+tnom = 25.0  rsh = 13.405+drsh_rnpo_3t
+cj =1.0117E-04  cjsw =6.9120E-11
// ******************************************************************
// *                  silicide p+ poly resistance                   *
// ******************************************************************
model rppo resistor
// *poly resistor
//*+ coeffs = [1.45E-04  6.53E-04]
// *jc1a = -1.02E-04 jc1b = 5.40E-08
// *jc2a = 4.89E-08 jc2b = 1.06E-11
+tc1 = 2.47E-03 tc2 = -9.28E-08 
+etch = 4E-09+ddw_rppo 
+tnom = 25.0  rsh = 12.420+drsh_rppo
// ******************************************************************
// *          silicide p+ poly resistance (three terminal)          *
// ******************************************************************
model rppo_3t resistor
// *poly resistor
//*+ coeffs = [1.45E-04  6.53E-04]
// *jc1a = -1.02E-04 jc1b = 5.40E-08
// *jc2a = 4.89E-08 jc2b = 1.06E-11
+tc1 = 2.47E-03 tc2 = -9.28E-08 
+etch = 4E-09+ddw_rppo_3t 
+tnom = 25.0  rsh = 12.420+drsh_rppo_3t
+cj =1.0117E-04  cjsw =6.9120E-11
// *
// ******************************************************************
// *                     non-silicide resistors                     *
// ******************************************************************
// ******************************************************************
// *                   nwell resistance under sti                   *
// ******************************************************************
model rnwsti resistor
// *diffusion resistor 
//*+ coeffs = [1.33E-02  -4.64E-04]
// *jc1a = -1.80E-03 jc1b = 2.66E-07
// *jc2a = 8.27E-10 jc2b = -9.83E-14
+tc1 = 8.40E-04 tc2 = 9.42E-06 
+etch = 1.28E-07+ddw_rnwsti
+tnom = 25.0  rsh = 653.4+drsh_rnwsti
// ******************************************************************
// *                    nwell resistance under aa                   *
// ******************************************************************
model rnwaa resistor
// *diffusion resistor 
//*+ coeffs = [1.23E-02  8.92E-05]
// *jc1a = -2.80E-03 jc1b = 2.66E-07
// *jc2a = -3.10E-08 jc2b = 3.21E-13
+tc1 = 1.77E-03 tc2 = 6.93E-06 
+etch = 1.15E-07+ddw_rnwaa
+tnom = 25.0  rsh = 373.00+drsh_rnwaa
// ******************************************************************
// *              non-silicide n+ diffusion resistance              *
// ******************************************************************
model rndifsab resistor
// *diffusion resistor 
//*+ coeffs = [5.02E-04  5.34E-03]
// *jc1a = 4.08E-04 jc1b = 6.03E-10
// *jc2a = 1.75E-08 jc2b = 6.17E-14
+tc1 = 1.43E-03 tc2 = 8.07E-07 
+etch = 7.78E-09+ddw_rndifsab   etchl = -1.88E-07
+tnom = 25.0  rsh = 115.60+drsh_rndifsab
// ******************************************************************
// *              non-silicide p+ diffusion resistance              *
// ******************************************************************
model rpdifsab resistor
// *diffusion resistor 
//*+ coeffs = [-5.08E-04  2.97E-03]
// *jc1a = -8.98E-05 jc1b = -2.70E-09
// *jc2a = 1.45E-08 jc2b = 1.69E-14
+tc1 = 1.60E-03 tc2 = 1.43E-06 
+etch = 1.00E-09+ddw_rpdifsab   etchl = -1.47E-07
+tnom = 25.0  rsh = 259.00+drsh_rpdifsab
// ******************************************************************
// *                non-silicide n+ poly resistance                 *
// ******************************************************************
model rnposab resistor
// *poly resistor
//*+ coeffs = [-2.62E-05  -4.98E-03]
// *jc1a = 1.94E-04 jc1b = -1.34E-09
// *jc2a = -4.32E-09 jc2b = -8.87E-14
+tc1 = -2.49E-04 tc2 = 4.67E-07 
+etch = 2.27E-08+ddw_rnposab   etchl = -1.29E-07
+tnom = 25.0  rsh = 292.45+drsh_rnposab
// ******************************************************************
// *        non-silicide n+ poly resistance (three terminal)        *
// ******************************************************************
model rnposab_3t resistor
// *poly resistor
//*+ coeffs = [-2.62E-05  -4.98E-03]
// *jc1a = 1.94E-04 jc1b = -1.34E-09
// *jc2a = -4.32E-09 jc2b = -8.87E-14
+tc1 = -2.49E-04 tc2 = 4.67E-07 
+etch = 2.27E-08+ddw_rnposab_3t   etchl = -1.29E-07
+tnom = 25.0  rsh = 292.45+drsh_rnposab_3t
+cj =1.0117E-04  cjsw =6.9120E-11
// ******************************************************************
// *                non-silicide p+ poly resistance                 *
// ******************************************************************
model rpposab resistor
// *poly resistor
//*+ coeffs = [-4.77E-04  -1.69E-03]
// *jc1a = 1.29E-04 jc1b = -3.91E-09
// *jc2a = -3.37E-09 jc2b = -2.73E-14
+tc1 = -3.04E-04 tc2 = 5.33E-07 
+etch = 2.79E-08+ddw_rpposab   etchl = -1.00E-07
+tnom = 25.0  rsh = 679.210+drsh_rpposab
// ******************************************************************
// *        non-silicide p+ poly resistance (three terminal)        *
// ******************************************************************
model rpposab_3t resistor
// *poly resistor
//*+ coeffs = [-4.77E-04  -1.69E-03]
// *jc1a = 1.29E-04 jc1b = -3.91E-09
// *jc2a = -3.37E-09 jc2b = -2.73E-14
+tc1 = -3.04E-04 tc2 = 5.33E-07 
+etch = 2.79E-08+ddw_rpposab_3t   etchl = -1.00E-07
+tnom = 25.0  rsh = 679.210+drsh_rpposab_3t
+cj =1.0117E-04  cjsw =6.9120E-11
// *******************************************************************
// *                         metal resistors                         *
// *******************************************************************
// ******************************************************************
// *                      metal 1 resistance                        *
// ******************************************************************
model rm1 resistor
//*+ coeffs = [0  1.18E-03]
// *jc1a = 0 jc1b = 0
// *jc2a = 1.69E-07 jc2b = 1.38E-10
+tc1 = 3.20E-03 tc2 = 3.92E-07 
+etch = 8.40E-09+ddw_rm1
+tnom = 25.0  rsh = 0.1288+drsh_rm1
+cj =4.6333E-05	cjsw = 1.0044E-10
// ******************************************************************
// *                      metal 2 resistance                        *
// ******************************************************************
model rm2 resistor
// *metal resistor
//*+ coeffs = [0  1.37E-03]
// *jc1a = 0 jc1b = 0
// *jc2a = 2.85E-07 jc2b = 3.64E-10
+tc1 = 3.29E-03 tc2 = 3.88E-07 
+etch = 1.61E-08+ddw_rm2
+tnom = 25.0  rsh = 0.0948+drsh_rm2
+cj = 3.0000E-05 cjsw = 9.3210E-11
// ******************************************************************
// *                      metal 3 resistance                        *
// ******************************************************************
model rm3 resistor
// *metal resistor
//*+ coeffs = [0  1.37E-03]
// *jc1a = 0 jc1b = 0
// *jc2a = 2.85E-07 jc2b = 3.64E-10
+tc1 = 3.29E-03 tc2 = 3.88E-07 
+etch = 1.61E-08+ddw_rm3
+tnom = 25.0  rsh = 0.0948+drsh_rm3
+cj = 2.1200E-05 cjsw = 9.2990E-11
// ******************************************************************
// *                      metal 4 resistance                        *
// ******************************************************************
model rm4 resistor
// *metal resistor
//*+ coeffs = [0  1.37E-03]
// *jc1a = 0 jc1b = 0
// *jc2a = 2.85E-07 jc2b = 3.64E-10
+tc1 = 3.29E-03 tc2 = 3.88E-07 
+etch = 1.61E-08+ddw_rm4
+tnom = 25.0  rsh = 0.0948+drsh_rm4
+cj = 1.6400E-05 cjsw = 9.2810E-11
// ******************************************************************
// *                      metal 5 resistance                        *
// ******************************************************************
model rm5 resistor
// *metal resistor
//*+ coeffs = [0  1.37E-03]
// *jc1a = 0 jc1b = 0
// *jc2a = 2.85E-07 jc2b = 3.64E-10
+tc1 = 3.29E-03 tc2 = 3.88E-07 
+etch = 1.61E-08+ddw_rm5
+tnom = 25.0  rsh = 0.0948+drsh_rm5
+cj = 1.3300E-05 cjsw = 9.2730E-11
// ******************************************************************
// *                      metal 6 resistance                        *
// ******************************************************************
model rm6 resistor
// *metal resistor
//*+ coeffs = [0  1.37E-03]
// *jc1a = 0 jc1b = 0
// *jc2a = 2.85E-07 jc2b = 3.64E-10
+tc1 = 3.29E-03 tc2 = 3.88E-07 
+etch = 1.61E-08+ddw_rm6
+tnom = 25.0  rsh = 0.0948+drsh_rm6
+cj = 1.1300E-05 cjsw = 9.2740E-11
// ******************************************************************
// *                      metal 7 resistance                        *
// ******************************************************************
model rm7 resistor
// *metal resistor
//*+ coeffs = [0  1.37E-03]
// *jc1a = 0 jc1b = 0
// *jc2a = 2.85E-07 jc2b = 3.64E-10
+tc1 = 3.29E-03 tc2 = 3.88E-07 
+etch = 1.61E-08+ddw_rm7
+tnom = 25.0  rsh = 0.0948+drsh_rm7
+cj = 9.7400E-06 cjsw = 9.2710E-11
// ******************************************************************
// *                      metal 8 resistance                        *
// ******************************************************************
model rm8 resistor
// *metal resistor
//*+ coeffs = [0  1.37E-03]
// *jc1a = 0 jc1b = 0
// *jc2a = 2.85E-07 jc2b = 3.64E-10
+tc1 = 3.29E-03 tc2 = 3.88E-07 
+etch = 1.61E-08+ddw_rm8
+tnom = 25.0  rsh = 0.0948+drsh_rm8
+cj = 8.5800E-06 cjsw = 1.0211E-10
// ******************************************************************
// *                  Top metal 1 resistance                        *
// ******************************************************************
model rtm1 resistor
// *metal resistor
//*+ coeffs = [0  7.98E-03]
// *jc1a = 0 jc1b = 0
// *jc2a = 1.83E-06 jc2b = 2.25E-10
+tc1 = 3.76E-03 tc2 = 3.45E-07 
+etch = 1.80E-08+ddw_rtm1
+tnom = 25.0  rsh = 0.0180+drsh_rtm1
+cj = 6.8333E-06 cjsw = 1.1153E-10 
// ******************************************************************
// *                  Top metal 2 resistance                        *
// ******************************************************************
model rtm2 resistor
// *metal resistor
//*+ coeffs = [0  7.98E-03]
// *jc1a = 0 jc1b = 0
// *jc2a = 1.83E-06 jc2b = 2.25E-10
+tc1 = 3.76E-03 tc2 = 3.45E-07 
+etch = 1.80E-08+ddw_rtm2
+tnom = 25.0  rsh = 0.0180+drsh_rtm2
+cj = 5.2381E-06 cjsw = 1.1167E-10
// *
