//*Spectre Model Format
simulator lang=spectre  insensitive=yes

// *
// *  no part of this file can be released without the consent of smic.
// *
// ************************************************************************************************************************************
// *    smic 65nm logic low leakage 1p10m(1p9m, 1p8m, 1p7m) salicide 1.2v/1.8v/2.5v(overdrive to 3.3v) spice model (for spectre only) *
// ************************************************************************************************************************************
// *
// *  release version    : 1.0
// *
// *  release date       : 6/15/2009
// *
// * simulation tool    : Cadence spectre V6.2.1
// *
// * model type          :
// *   vertical  bjt     : spectre BJT
// *
// *  model name         :
// *        *-------------------------------------------------------------------------*
// *        |  p+/nwell/psub bjt type       |    1.2v     |     1.8v    |     2.5v    |
// *        |===========================================================|=============|
// *        | emitter area: 10*10 um^2      | pnp12a100ll | pnp18a100ll | pnp25a100ll |
// *        |-------------------------------------------------------------------------|
// *        | emitter area: 5*5 um^2        | pnp12a25ll  | pnp18a25ll  | pnp25a25ll  |
// *        |-------------------------------------------------------------------------|
// *        | emitter area: 2*2 um^2        | pnp12a4ll   | pnp18a4ll   | pnp25a4ll   |
// *        *-------------------------------------------------------------------------*
// *
// *
// *
// *        *-------------------------------------------------------------------------*
// *        |  n+/pwell/deepnwell bjt type  |    1.2v     |     1.8v    |     2.5v    |
// *        |===========================================================|=============|
// *        | emitter area: 10*10 um^2      | npn12a100ll | npn18a100ll | npn25a100ll |
// *        |-------------------------------------------------------------------------|
// *        | emitter area: 5*5 um^2        | npn12a25ll  | npn18a25ll  | npn25a25ll  |
// *        |-------------------------------------------------------------------------|
// *        | emitter area: 2*2 um^2        | npn12a4ll   | npn18a4ll   | npn25a4ll   |
// *        *-------------------------------------------------------------------------*
// *
// *  the valid temperature range is from -40c to 125c
// *
// ****************************************************************************
// *    1.2v vertival p+/nwell/psub bipolar model (emitter area=10x10um^2)    *
// ****************************************************************************
// *
model pnp12a100ll bjt type=pnp
+vaf = 611.8 ikf = 8.6339e-03 
+ise = 5.0069e-15 ne = 2.0785 br = 0.1568 
+nr = 1.0128 var = 34.6 ikr = 5.00e-03 
+isc = 6.8629e-12 nc = 1.6903 rb = 44.7678 
+irb = 3.57e-03 rbm = 5.154 re = 1.6779 
+rc = 2.6103 xti = 3.0 eg = 1.16 
+tnom = 25.0 nkf = 0.5 tlev = 0 
+tlevc = 1 xtb = 0.00 
+tbf1 = 3.3869e-03 tbf2 = -1.5219e-06 tbr1 = -1.625e-11 
+tbr2 = 6.7511e-08 tikf1 = -7.1593e-03 tikf2 = 2.665e-05 
+tikr2 = -1.00e-20 tne1 = 4.525e-05 
+tne2 = -1.1425e-05 tnf1 = -7.781e-06 tnf2 = -6.6495e-08 
+tnr1 = -4.58e-05 tnr2 = -6.39e-07 
+trb1 = 1.24e-07 trb2 = 7.6725e-06 
+trm1 = 0.00 trm2 = 0.00 
+ctc = 2.67e-03 cte = 9.71e-04 
+vje = 0.718 mje = 0.332 
+vjc = 0.583 mjc = 0.381 
+tvjc = 3.16e-03 tvje = 1.62e-03 
+is = 4.8961e-18+dis_pnp12a100ll 
+bf = 0.5062+dbf_pnp12a100ll 
+nf = 1.0032+dnf_pnp12a100ll 
+cjc = 7.6148e-14+dcjc_pnp12a100ll 
+cje = 1.1015e-13+dcje_pnp12a100ll 
// *
// **************************************************************************
// *    1.2v vertival p+/nwell/psub bipolar model (emitter area=5x5um^2)    *
// **************************************************************************
// *
model pnp12a25ll bjt type=pnp
+vaf = 805.0 ikf = 8.6339e-03 
+ise = 5.0069e-15 ne = 2.32 br = 0.0975 
+nr = 1.03 var = 34.6 ikr = 5.00e-03 
+isc = 4.8039e-12 nc = 1.6903 rb = 63.3916 
+irb = 3.57e-03 rbm = 5.154 re = 1.6779 
+rc = 2.6103 xti = 3.0 eg = 1.16 
+tnom = 25.0 nkf = 0.5 tlev = 0 
+tlevc = 1 xtb = 0.00 
+tbf1 = 3.5471e-03 tbf2 = -1.5219e-06 tbr1 = -8.125e-13 
+tbr2 = 6.7513e-08 tikf1 = -7.1593e-03 tikf2 = 2.665e-05 
+tikr1 = 0.00 tikr2 = -1.00e-20 
+tne1 = 1.226e-09 
+tne2 = -2.8562e-08 tnf1 = -7.781e-06 tnf2 = -6.6495e-08 
+tnr1 = -4.58e-05 tnr2 = -3.195e-07 
+trb1 = 1.24e-07 trb2 = 7.6725e-06 
+trm1 = 0.00 trm2 = 0.00 
+ctc = 2.67e-03 cte = 9.71e-04 
+vje = 0.718 mje = 0.332 
+vjc = 0.583 mjc = 0.381 
+tvjc = 3.16e-03 tvje = 1.62e-03 
+is = 1.5057e-18+dis_pnp12a25ll 
+bf = 0.5144+dbf_pnp12a25ll 
+nf = 1.0032+dnf_pnp12a25ll 
+cje = 2.7778e-14+dcje_pnp12a25ll 
+cjc = 4.5917e-14+dcjc_pnp12a25ll 
// *
// **************************************************************************
// *    1.2v vertival p+/nwell/psub bipolar model (emitter area=2x2um^2)    *
// **************************************************************************
// *
model pnp12a4ll bjt type=pnp
+vaf = 945 ikf = 4.8356e-03 
+ise = 4.5387e-15 ne = 2.6353 br = 7.0053e-04 
+nr = 0.93 var = 34.6003 ikr = 7.7044e-03 
+isc = 1.1312e-12 nc = 1.6903 rb = 127.0233 
+irb = 3.57e-03 rbm = 6.8719 re = 1.6779 
+rc = 2.6103 xti = 3.0 eg = 1.16 
+tnom = 25.0 nkf = 0.5 tlev = 0 
+tlevc = 1 xtb = 0.00 
+tbf1 = 4.051e-03 tbf2 = -1.5219e-06 tbr1 = -4.875e-07 
+tbr2 = 8.1047e-05 tikf1 = -7.6279e-03 tikf2 = 2.665e-05 
+tikr1 = -5.80e-21 tikr2 = -1.00e-20 
+tne1 = 5.00e-07 
+tne2 = -1.4697e-07 tnf1 = -1.0309e-09 tnf2 = -1.1402e-06 
+tnr1 = -6.87e-05 tnr2 = -7.668e-07 
+trb1 = 2.4797e-05 trb2 = 1.8363e-06 
+trm1 = 0.00 trm2 = 0.00 
+ctc = 2.67e-03 cte = 9.71e-04 
+vje = 0.718 mje = 0.332 
+vjc = 0.583 mjc = 0.381 
+tvjc = 3.16e-03 tvje = 1.62e-03 
+is = 1.759e-19+dis_pnp12a4ll 
+bf = 0.5305+dbf_pnp12a4ll 
+nf = 0.986+dnf_pnp12a4ll 
+cje = 4.5596e-15+dcje_pnp12a4ll 
+cjc = 3.0586e-14+dcjc_pnp12a4ll 
// *
// ***********************************************************************************
// *           1.8v vertival p+/nwell/psub bipolar model (emitter area=10x10um^2)    *
// ***********************************************************************************
// *
model pnp18a100ll bjt type=pnp
+vaf = 805.0 ikf = 0.0129 
+ise = 5.0069e-15 ne = 1.8895 br = 0.2208 
+nr = 1.032 var = 34.6 ikr = 5.00e-03 
+isc = 6.8629e-12 nc = 1.6903 rb = 41.9847 
+irb = 3.57e-03 rbm = 5.154 re = 1.6779 
+rc = 2.6103 xti = 3.0 eg = 1.16 
+tnom = 25.0 nkf = 0.5 tlev = 0 
+tlevc = 1 xtb = 0.00 
+tbf1 = 3.6728e-03 tbf2 = -1.5219e-06 tbr1 = -8.125e-15 
+tbr2 = -1.8626e-09 tikf1 = -7.8519e-03 tikf2 = 2.665e-05 
+tne1 = 1.4525e-04 tne2 = -3.9061e-06 
+tnf1 = -7.781e-06 tnf2 = -6.6495e-08 tnr1 = -4.58e-05 
+tnr2 = -6.39e-07 trb1 = 1.86e-03 
+trb2 = 7.6725e-06 trm1 = 0.00 trm2 = 0.00 
+ctc = 2.67e-3 cte = 9.39e-04 
+tvjc = 3.16e-3 tvje = 1.50e-03 
+vje = 0.646 mje = 0.349 
+vjc = 0.583 mjc = 0.381 
+is = 5.9063e-18+dis_pnp18a100ll 
+bf = 0.475+dbf_pnp18a100ll 
+nf = 1.0132+dnf_pnp18a100ll 
+cje = 1.4686e-13+dcje_pnp18a100ll 
+cjc = 7.6148e-14+dcjc_pnp18a100ll 
// *
// ***********************************************************************************
// *            1.8v vertival p+/nwell/psub bipolar model (emitter area=5x5um^2)     *
// ***********************************************************************************
// *
model pnp18a25ll bjt type=pnp
+vaf = 805.0 ikf = 8.6339e-03 
+ise = 5.0069e-15 ne = 2.32 br = 0.0975 
+nr = 1.0345 var = 34.6 ikr = 5.00e-03 
+isc = 4.8039e-12 nc = 1.6903 rb = 63.3916 
+irb = 3.57e-03 rbm = 5.154 re = 1.6779 
+rc = 2.6103 xti = 3.0 eg = 1.16 
+tnom = 25.0 nkf = 0.5 tlev = 0 
+tlevc = 1 xtb = 0.00 
+tbf1 = 3.9372e-03 tbf2 = -1.5219e-06 tbr1 = -8.125e-13 
+tbr2 = 6.7513e-08 tikf1 = -7.1593e-03 tikf2 = 2.665e-05 
+tikr2 = -1.00e-20 tne1 = 1.226e-09 
+tne2 = -2.8562e-08 tnf1 = 7.3994e-05 tnf2 = -6.6495e-08 
+tnr1 = -4.9922e-05 tnr2 = -4.7925e-07 
+trb1 = 1.24e-07 trb2 = 7.6725e-06 
+trm1 = 0.00 trm2 = 0 
+ctc = 2.67e-3 cte = 9.39e-04 
+tvjc = 3.16e-3 tvje = 1.50e-03 
+vje = 0.646 mje = 0.349 
+vjc = 0.583 mjc = 0.381 
+is = 1.4304e-18+dis_pnp18a25ll 
+bf = 0.4735+dbf_pnp18a25ll 
+nf = 1.0085+dnf_pnp18a25ll 
+cje = 3.68e-14+dcje_pnp18a25ll 
+cjc = 4.59e-14+dcjc_pnp18a25ll 
// *
// ***********************************************************************************
// *            1.8v vertival p+/nwell/psub bipolar model (emitter area=2x2um^2)     *
// ***********************************************************************************
// *
model pnp18a4ll bjt type=pnp
+vaf = 945 ikf = 9.482e-03 
+ise = 4.5387e-15 ne = 2.6353 br = 6.945e-04 
+nr = 0.9592 var = 34.6003 ikr = 7.7044e-03 
+isc = 5.8012e-13 nc = 1.6903 rb = 101.6186 
+irb = 3.57e-03 rbm = 6.8719 re = 1.6779 
+rc = 2.6103 xti = 3.0 eg = 1.16 
+tnom = 25.0 nkf = 0.5 tlev = 0 
+tlevc = 1 xtb = 0.00 
+tbf1 = 4.5011e-03 tbf2 = -1.5219e-06 tbr1 = -9.75e-06 
+tbr2 = 6.7511e-08 tikf1 = -9.642e-03 tikf2 = 2.665e-05 
+tikr1 = -5.80e-21 tikr2 = -1.00e-20 tne1 = 1.00e-04 
+tne2 = -2.9394e-06 tnf1 = -1.0309e-09 tnf2 = -3.575e-08 
+tnr1 = -4.58e-05 tnr2 = -6.39e-07 
+trb1 = 2.4797e-05 trb2 = 7.6725e-06 
+trm1 = 0.00 trm2 = 0.00 
+ctc = 2.67e-3 cte = 9.39e-04 
+tvjc = 3.16e-3 tvje = 1.50e-03 
+vje = 0.646 mje = 0.349 
+vjc = 0.583 mjc = 0.381 
+is = 2.009e-19+dis_pnp18a4ll 
+bf = 0.4825+dbf_pnp18a4ll 
+nf = 0.996+dnf_pnp18a4ll 
+cje = 5.93e-15+dcje_pnp18a4ll 
+cjc = 3.0586e-14+dcjc_pnp18a4ll 
// *
// ***********************************************************************************
// *           2.5v vertival p+/nwell/psub bipolar model (emitter area=10x10um^2)    *
// ***********************************************************************************
// *
model pnp25a100ll bjt type=pnp
+vaf = 805.0 ikf = 7.8889e-03 
+ise = 5.0069e-15 ne = 2.2864 br = 0.1427 
+nr = 1.0128 var = 34.6 ikr = 5.00e-03 
+isc = 6.8629e-12 nc = 1.6903 rb = 44.7678 
+irb = 3.57e-03 rbm = 5.154 re = 1.6779 
+rc = 2.6103 xti = 3.0 eg = 1.16 
+tnom = 25.0 nkf = 0.5 tlev = 0 
+tlevc = 1 xtb = 0.00 
+tbf1 = 3.5563e-03 tbf2 = -1.5219e-06 tbr1 = -1.625e-11 
+tbr2 = 6.7511e-08 tikf1 = -7.1593e-03 tikf2 = 2.665e-05 
+tikr2 = -1.00e-20 tne1 = 4.5252e-07 
+tne2 = -5.7125e-08 tnf1 = -7.781e-06 tnf2 = -6.6495e-08 
+tnr1 = -4.58e-05 tnr2 = -6.39e-07 
+trb1 = 1.24e-07 trb2 = 7.6725e-06 
+trm1 = 0.00 trm2 = 0.00 
+ctc = 2.67e-3 cte = 9.06e-04 
+tvjc = 3.16e-3 tvje = 1.61e-03 
+vje = 0.739 mje = 0.328 
+vjc = 0.583 mjc = 0.381 
+is = 5.10e-18+dis_pnp25a100ll 
+bf = 0.781+dbf_pnp25a100ll 
+nf = 1.0032+dnf_pnp25a100ll 
+cje = 1.22e-13+dcje_pnp25a100ll 
+cjc = 7.6148e-14+dcjc_pnp25a100ll 
// *
// ***********************************************************************************
// *            2.5v vertival p+/nwell/psub bipolar model (emitter area=5x5um^2)     *
// ***********************************************************************************
// *
model pnp25a25ll bjt type=pnp
+vaf = 805.0 ikf = 4.7959e-03 
+ise = 5.0069e-15 ne = 2.2448 br = 0.1071 
+nr = 1.034 var = 34.6 ikr = 5.00e-03 
+isc = 4.804e-12 nc = 1.6903 rb = 53.7214 
+irb = 3.57e-03 rbm = 5.154 re = 1.6779 
+rc = 2.6103 xti = 3.0 eg = 1.16 
+tnom = 25.0 nkf = 0.5 tlev = 0 
+tlevc = 1 xtb = 0.00 
+tbf1 = 3.7256e-03 tbf2 = -1.5219e-06 tbr1 = -1.625e-11 
+tbr2 = 6.7511e-08 tikf1 = -6.0718e-03 tikf2 = 2.665e-05 
+tikr2 = -1.00e-20 tne1 = 7.2632e-07 
+tne2 = -7.826e-08 tnf1 = -7.781e-06 tnf2 = -6.6495e-08 
+tnr1 = -2.29e-08 tnr2 = -3.195e-07 
+trb1 = 9.3006e-04 trb2 = 7.6725e-06 
+trm1 = 0.00 trm2 = 0 
+ctc = 2.67e-3 cte = 9.06e-04 
+tvjc = 3.16e-3 tvje = 1.61e-03 
+vje = 0.739 mje = 0.328 
+vjc = 0.583 mjc = 0.381 
+is = 1.5513e-18+dis_pnp25a25ll 
+bf = 0.785+dbf_pnp25a25ll 
+nf = 1.01+dnf_pnp25a25ll 
+cje = 3.07e-14+dcje_pnp25a25ll 
+cjc = 4.59e-14+dcjc_pnp25a25ll 
// *
// ***********************************************************************************
// *            2.5v vertival p+/nwell/psub bipolar model (emitter area=2x2um^2)     *
// ***********************************************************************************
// *
model pnp25a4ll bjt type=pnp
+vaf = 1.1351e+03 ikf = 2.6378e-03 
+ise = 5.0069e-15 ne = 2.2533 br = 0.0757 
+nr = 1.05 var = 34.6 ikr = 5.00e-03 
+isc = 2.8217e-12 nc = 1.6903 rb = 105.8635 
+irb = 3.57e-03 rbm = 5.154 re = 1.6779 
+rc = 2.6103 xti = 3.0 eg = 1.16 
+tnom = 25.0 nkf = 0.5 tlev = 0 
+tlevc = 1 xtb = 0.00 
+tbf1 = 4.503e-03 tbf2 = -1.5219e-06 tbr1 = -1.625e-11 
+tbr2 = 6.7511e-08 tikf1 = -6.4278e-03 tikf2 = 2.665e-05 
+tikr2 = -1.00e-20 tne1 = -2.5447e-03 
+tne2 = -5.7125e-09 tnf1 = -7.781e-06 tnf2 = -6.6495e-08 
+tnr1 = -1.05e-05 tnr2 = -3.195e-08 
+trb1 = 1.24e-07 trb2 = 7.6725e-06 
+trm1 = 0.00 trm2 = 0.00 
+ctc = 2.67e-3 cte = 9.06e-04 
+tvjc = 3.16e-3 tvje = 1.61e-03 
+vje = 0.739 mje = 0.328 
+vjc = 0.583 mjc = 0.381 
+is = 2.802e-19+dis_pnp25a4ll 
+bf = 0.79+dbf_pnp25a4ll 
+nf = 1.0032+dnf_pnp25a4ll 
+cje = 5.05e-15+dcje_pnp25a4ll 
+cjc = 3.0586e-14+dcjc_pnp25a4ll 
// *
// *********************************************************************************
// *    1.2v vertival n+/pwell/deepnwell bipolar model (emitter area=10x10um^2)    *
// *********************************************************************************
// *
model npn12a100ll bjt type=npn
+vaf = 174.7377 ikf = 0.3 
+ise = 1.1938e-15 ne = 1.8873 br = 0.262 
+nr = 1.0216 var = 50.0 ikr = 0.0561 
+isc = 1.4877e-16 nc = 1.4802 rb = 44.7363 
+irb = 5.36e-03 rbm = 1.8414 re = 10.0009 
+rc = 6.1531 xti = 3.0 eg = 1.16 
+tnom = 25.0 nkf = 0.5 tlev = 0 
+tlevc = 1 xtb = 0.00 
+tbf1 = 4.3194e-03 tbf2 = -1.5219e-06 tbr1 = 3.9523e-04 
+tbr2 = 1.0152e-05 tikf1 = -9.337e-03 tikf2 = 2.665e-05 
+tne1 = -1.00e-03 tne2 = 4.20e-21 
+tnf1 = 5.61e-05 tnf2 = -7.85e-07 tnr1 = -4.50e-05 
+tnr2 = -6.39e-07 
+trb1 = 6.0003e-03 trb2 = 1.00e-06 
+trm1 = 0.00 trm2 = 0.00 
+ctc = 1.46e-03 cte = 8.52e-04 
+vje = 1.04 mje = 5.78e-01 
+vjc = 0.669 mjc = 0.343 
+tvjc = 2.10e-03 tvje = 1.20e-03 
+is = 1.5502e-17+dis_npn12a100ll 
+bf = 3.263+dbf_npn12a100ll 
+nf = 1.03+dnf_npn12a100ll 
+cjc = 1.6505e-13+dcjc_npn12a100ll 
+cje = 1.5516e-13+dcje_npn12a100ll 
// *
// *******************************************************************************
// *    1.2v vertival n+/pwell/deepnwell bipolar model (emitter area=5x5um^2)    *
// *******************************************************************************
// *
model npn12a25ll bjt type=npn
+vaf = 174.7377 ikf = 0.0884 
+ise = 5.3264e-17 ne = 1.5463 br = 0.1312 
+nr = 1.012 var = 37.5 ikr = 0.0428 
+isc = 1.0894e-16 nc = 1.4677 rb = 50.5344 
+irb = 5.36e-03 rbm = 1.8414 re = 16.835 
+rc = 3.896 xti = 3.0 eg = 1.16 
+tnom = 25.0 nkf = 0.5 tlev = 0 
+tlevc = 1 xtb = 0.00 
+tbf1 = 4.1978e-03 tbf2 = -1.5219e-06 tbr1 = 4.3253e-04 
+tbr2 = 1.0152e-05 tikf1 = -9.3973e-03 tikf2 = 2.665e-05 
+tnc1 = -6.00e-04 tne1 = 1.5481e-05 tne2 = 4.20e-21 
+tnf1 = 6.00e-06 tnf2 = -7.85e-07 tnr1 = -3.375e-05 
+tnr2 = -6.39e-07 trb1 = 5.4208e-03 
+trb2 = 1.00e-06 trc1 = -6.00e-03 
+trm1 = 0.00 trm2 = 0.00 
+ctc = 1.46e-03 cte = 8.52e-04 
+vje = 1.04 mje = 5.78e-01 
+vjc = 0.669 mjc = 0.343 
+tvjc = 2.10e-03 tvje = 1.20e-03 
+is = 2.9483e-18+dis_npn12a25ll 
+bf = 3.447+dbf_npn12a25ll 
+nf = 1.008+dnf_npn12a25ll 
+cje = 3.9080e-14+dcje_npn12a25ll 
+cjc = 8.7946e-14+dcjc_npn12a25ll 
// *
// *******************************************************************************
// *    1.2v vertival n+/pwell/deepnwell bipolar model (emitter area=2x2um^2)    *
// *******************************************************************************
// *
model npn12a4ll bjt type=npn
+vaf = 120.4771 ikf = 0.0189 
+ise = 5.0798e-18 ne = 1.395 br = 0.0448 
+nr = 1.01 var = 33.25 ikr = 0.0428 
+isc = 1.0383e-16 nc = 1.3846 rb = 51.3207 
+irb = 5.36e-03 rbm = 1.8414 re = 35.4726 
+rc = 2.01 xti = 3.0 eg = 1.16 
+tnom = 25.0 nkf = 0.5 tlev = 0 
+tlevc = 1 xtb = 0.00 
+tbf1 = 4.3298e-03 tbf2 = -1.5219e-06 tbr1 = 1.9981e-04 
+tbr2 = 1.0152e-05 tikf1 = -9.0893e-03 tikf2 = 2.665e-05 
+tne1 = 3.192e-04 tne2 = 4.20e-21 
+tnf1 = 6.00e-06 tnf2 = -7.85e-07 tnr1 = -6.75e-05 
+tnr2 = -6.39e-07 trb1 = 3.5127e-04 
+trb2 = 1.00e-06 trc1 = 0
+trm1 = 0.00 trm2 = 0.00 
+ctc = 1.46e-03 cte = 8.52e-04 
+vje = 1.04 mje = 5.78e-01 
+vjc = 0.669 mjc = 0.343 
+tvjc = 2.10e-03 tvje = 1.20e-03 
+is = 5.9674e-19+dis_npn12a4ll 
+bf = 3.82+dbf_npn12a4ll 
+nf = 1.01+dnf_npn12a4ll 
+cje = 6.3920e-15+dcje_npn12a4ll 
+cjc = 5.2822e-14+dcjc_npn12a4ll 
// *
// ****************************************************************************************
// *           1.8v vertival n+/pwell/deepnwell bipolar model (emitter area=10x10um^2)    *
// ****************************************************************************************
// *
model npn18a100ll bjt type=npn
+vaf = 206.8402 ikf = 0.7 
+ise = 8.6608e-18 ne = 1.2679 br = 0.2385 
+nr = 1.024 var = 70.0 ikr = 0.0911 
+isc = 7.3755e-17 nc = 1.3984 rb = 40.2627 
+irb = 5.36e-03 rbm = 1.8414 re = 9.0633 
+rc = 5.9378 xti = 3.0 eg = 1.16 
+tnom = 25.0 nkf = 0.5 tlev = 0 
+tlevc = 1 xtb = 0.00 
+tbf1 = 3.985e-03 tbf2 = -1.5219e-06 tbr1 = 2.70e-04 
+tbr2 = 1.0152e-05 tikf1 = -0.011 tikf2 = 2.665e-05 
+tne1 = 5.475e-04 tne2 = 2.50e-06 
+tnf1 = 9.2264e-05 tnf2 = -1.5602e-06 tnr1 = -3.9325e-08 
+tnr2 = -6.39e-07 trb1 = 6.4947e-03 
+trb2 = 1.00e-06 trm1 = 0.00 trm2 = 0.00 
+ctc = 1.46e-3 cte = 8.04e-04 
+tvjc = 2.10e-3 tvje = 1.25e-03 
+vje = 0.8 mje = 0.4 
+vjc = 0.669 mjc = 0.343 
+is = 1.2111e-17+dis_npn18a100ll 
+bf = 3.012+dbf_npn18a100ll 
+nf = 1.02+dnf_npn18a100ll 
+cje = 1.195e-13+dcje_npn18a100ll 
+cjc = 1.6505e-13+dcjc_npn18a100ll 
// *
// ****************************************************************************************
// *            1.8v vertival n+/pwell/deepnwell bipolar model (emitter area=5x5um^2)     *
// ****************************************************************************************
// *
model npn18a25ll bjt type=npn
+vaf = 206.8402 ikf = 0.63 
+ise = 8.6608e-18 ne = 1.349 br = 0.1207 
+nr = 1.024 var = 70.0 ikr = 0.0911 
+isc = 7.3755e-17 nc = 1.3984 rb = 56.0525 
+irb = 5.36e-03 rbm = 1.8414 re = 13.5949 
+rc = 0.5383 xti = 3.0 eg = 1.16 
+tnom = 25.0 nkf = 0.5 tlev = 0 
+tlevc = 1 xtb = 0.00 
+tbf1 = 4.2042e-03 tbf2 = -1.5219e-06 tbr1 = 2.70e-04 
+tbr2 = 1.0152e-05 tikf1 = -0.0121 tikf2 = 2.665e-05 
+tne1 = 5.475e-04 tne2 = 2.50e-06 
+tnf1 = 4.6132e-05 tnf2 = -1.5602e-06 tnr1 = -3.9325e-08 
+tnr2 = -6.39e-07 trb1 = 3.2473e-03 
+trb2 = 1.00e-06 
+trm1 = 0.00 trm2 = 0 
+ctc = 1.46e-3 cte = 8.04e-04 
+tvjc = 2.10e-3 tvje = 1.25e-03 
+vje = 0.8 mje = 0.4 
+vjc = 0.669 mjc = 0.343 
+is = 3.4154e-18+dis_npn18a25ll 
+bf = 3.11+dbf_npn18a25ll 
+nf = 1.02+dnf_npn18a25ll 
+cje = 3.02e-14+dcje_npn18a25ll 
+cjc = 8.7946e-14+dcjc_npn18a25ll 
// *
// ****************************************************************************************
// *            1.8v vertival n+/pwell/deepnwell bipolar model (emitter area=2x2um^2)     *
// ****************************************************************************************
// *
model npn18a4ll bjt type=npn
+vaf = 198.0437 ikf = 0.0283 
+ise = 2.1691e-18 ne = 1.3 br = 0.0406 
+nr = 1.01 var = 46.55 ikr = 0.0214 
+isc = 1.0383e-16 nc = 1.3846 rb = 58.4719 
+irb = 5.36e-03 rbm = 1.8414 re = 30.3811 
+rc = 1.688 xti = 3.0 eg = 1.16 
+tnom = 25.0 nkf = 0.5 tlev = 0 
+tlevc = 1 xtb = 0.00 
+tbf1 = 4.3731e-03 tbf2 = -1.5219e-06 tbr1 = 2.7974e-04 
+tbr2 = 1.0152e-05 tikf1 = -9.3588e-03 tikf2 = 2.665e-05 
+tne1 = 2.394e-04 tne2 = 4.20e-21 
+tnf1 = 4.515e-05 tnf2 = -7.85e-07 tnr1 = -3.375e-08 
+tnr2 = -6.39e-07 trb1 = 3.5127e-04 
+trb2 = 1.00e-06 trc1 = 0
+trm1 = 0.00 trm2 = 0.00 
+ctc = 1.46e-3 cte = 8.04e-04 
+tvjc = 2.10e-3 tvje = 1.25e-03 
+vje = 0.8 mje = 0.4 
+vjc = 0.669 mjc = 0.343 
+is = 5.9674e-19+dis_npn18a4ll 
+bf = 3.379+dbf_npn18a4ll 
+nf = 1.01+dnf_npn18a4ll 
+cje = 4.99e-15+dcje_npn18a4ll 
+cjc = 5.2822e-14+dcjc_npn18a4ll 
// *
// ****************************************************************************************
// *           2.5v vertival n+/pwell/deepnwell bipolar model (emitter area=10x10um^2)    *
// ****************************************************************************************
// *
model npn25a100ll bjt type=npn
+vaf = 206.8402 ikf = 0.35 
+ise = 8.6608e-18 ne = 1.28 br = 0.2428 
+nr = 1.019 var = 70.0 ikr = 0.0911 
+isc = 7.3755e-17 nc = 1.3984 rb = 38.6522 
+irb = 5.36e-03 rbm = 1.8414 re = 9.0633 
+rc = 7.5432 xti = 3.0 eg = 1.16 
+tnom = 25.0 nkf = 0.5 tlev = 0 
+tlevc = 1 xtb = 0.00 
+tbf1 = 3.9255e-03 tbf2 = -1.5219e-06 tbr1 = 2.70e-04 
+tbr2 = 1.0152e-05 tikf1 = -0.0103 tikf2 = 2.665e-05 
+tne1 = 5.475e-04 tne2 = 2.50e-06 
+tnf1 = 9.2264e-05 tnf2 = -1.5602e-06 tnr1 = -3.9325e-08 
+tnr2 = -6.39e-07 trb1 = 6.4947e-03 
+trb2 = 1.00e-06 
+trm1 = 0.00 trm2 = 0.00 
+ctc = 1.46e-3 cte = 7.64e-04 
+tvjc = 2.10e-3 tvje = 1.22e-03 
+vje = 0.712 mje = 0.339 
+vjc = 0.669 mjc = 0.343 
+is = 1.2111e-17+dis_npn25a100ll 
+bf = 3.556+dbf_npn25a100ll 
+nf = 1.02+dnf_npn25a100ll 
+cje = 1.16e-13+dcje_npn25a100ll 
+cjc = 1.6505e-13+dcjc_npn25a100ll 
// *
// ****************************************************************************************
// *            2.5v vertival n+/pwell/deepnwell bipolar model (emitter area=5x5um^2)     *
// ****************************************************************************************
// *
model npn25a25ll bjt type=npn
+vaf = 206.8402 ikf = 0.1 
+ise = 8.6608e-18 ne = 1.37 br = 0.1235 
+nr = 1.024 var = 70.0 ikr = 0.0911 
+isc = 7.3755e-17 nc = 1.3984 rb = 42.0394 
+irb = 5.36e-03 rbm = 1.8414 re = 13.5949 
+rc = 6.1113 xti = 3.0 eg = 1.16 
+tnom = 25.0 nkf = 0.5 tlev = 0 
+tlevc = 1 xtb = 0.00 
+tbf1 = 4.036e-03 tbf2 = -1.5219e-06 tbr1 = 2.70e-04 
+tikf1 = -0.0101 tikf2 = 2.665e-05 
+tne1 = 5.475e-04 tne2 = 2.50e-06 tnf1 = 8.9957e-05 
+tnf2 = -1.5602e-06 tnr1 = -3.9325e-08 tnr2 = -6.39e-07 
+trb1 = 3.2473e-03 trb2 = 1.00e-06 
+trm1 = 0.00 trm2 = 0 
+ctc = 1.46e-3 cte = 7.64e-04 
+tvjc = 2.10e-3 tvje = 1.22e-03 
+vje = 0.712 mje = 0.339 
+vjc = 0.669 mjc = 0.343 
+is = 3.4154e-18+dis_npn25a25ll 
+bf = 3.75+dbf_npn25a25ll 
+nf = 1.02+dnf_npn25a25ll 
+cje = 2.94e-14+dcje_npn25a25ll 
+cjc = 8.7946e-14+dcjc_npn25a25ll 
// *
// ****************************************************************************************
// *            2.5v vertival n+/pwell/deepnwell bipolar model (emitter area=2x2um^2)     *
// ****************************************************************************************
// *
model npn25a4ll bjt type=npn
+vaf = 198.0437 ikf = 0.0173 
+ise = 1.2086e-18 ne = 1.2905 br = 0.0411 
+nr = 1.01 var = 58.653 ikr = 0.015 
+isc = 1.0383e-16 nc = 1.3846 rb = 44.3414 
+irb = 5.36e-03 rbm = 1.8414 re = 30.3811 
+rc = 5.957 xti = 3.0 eg = 1.16 
+tnom = 25.0 nkf = 0.5 tlev = 0 
+tlevc = 1 xtb = 0.00 
+tbf1 = 4.231e-03 tbf2 = -1.5219e-06 tbr1 = 1.3987e-05 
+tbr2 = 1.0152e-05 tikf1 = -8.8737e-03 tikf2 = 2.665e-05 
+tne1 = 2.394e-04 tne2 = 4.20e-21 
+tnf1 = 4.515e-05 tnf2 = -7.85e-07 tnr1 = -3.375e-08 
+tnr2 = -6.39e-07 trb1 = 3.5127e-04 
+trb2 = 1.00e-06 trc1 = 6.12e-03 
+trm1 = 0.00 trm2 = 0.00 
+ctc = 1.46e-3 cte = 7.64e-04 
+tvjc = 2.10e-3 tvje = 1.22e-03 
+vje = 0.712 mje = 0.339 
+vjc = 0.669 mjc = 0.343 
+is = 5.9674e-19+dis_npn25a4ll 
+bf = 3.952+dbf_npn25a4ll 
+nf = 1.01+dnf_npn25a4ll 
+cje = 4.95e-15+dcje_npn25a4ll 
+cjc = 5.2822e-14+dcjc_npn25a4ll 
// *
