// *Spectre Model Format
simulator lang=spectre  insensitive=yes

// * no part of this file can be released without the consent of smic.
// *
// ************************************************************************************************************************************
// *    smic 65nm logic low leakage 1p10m(1p9m, 1p8m, 1p7m) salicide 1.2v/1.8v/2.5v(overdrive to 3.3v) spice model (for spectre only) *
// ************************************************************************************************************************************
// *
// * release version    : 1.0
// *
// * release date       : 6/15/2009
// *
// * simulation tool    : Cadence spectre V6.2.1
// *
// * model type         :
// *   mosfet           : bsim4v4.5
// *
// * model name         :
// *   mosfet           :
//*        *------------------------------------------------------------------------*
//*        |     MOSFET type    |   1.2V   |   1.8V   |   2.5V   |  2.5V(od 3.3V)   |
//*        |========================================================================|
//*        |        NMOS        |   n12ll  |   n18ll  |   n25ll  |     nod33ll      |
//*        *------------------------------------------------------------------------*
//*        |        PMOS        |   p12ll  |   p18ll  |   p25ll  |     pod33ll      |
//*        *------------------------------------------------------------------------*
//*        |    Native NMOS     |   nt12ll |   nt18ll |   nt25ll |   
//*        *-----------------------------------------------------*
//*        |      HVT NMOS      | nhvt12ll |
//*        *-------------------------------*
//*        |      HVT PMOS      | phvt12ll |
//*        *-------------------------------*
//*        |      LVT NMOS      | nlvt12ll |
//*        *-------------------------------*
//*        |      LVT PMOS      | plvt12ll |
//*        *-------------------------------*
// *
// *    the valid temperature range is from -40c to 125c
// *
// ***********************************************************************************
// *                              1.2v core nmos model                               *
// ***********************************************************************************
// *
model  n12ll  bsim4 type = n  
**************************************************************
*               MODEL FLAG PARAMETERS 
**************************************************************
+lmin    = 6e-008          lmax    = 0.0001          wmin    = 1.2e-007      
+wmax    = 0.0001          version = 4.5             binunit = 2             
+paramchk= 1               mobmod  = 0               capmod  = 2             
+igcmod  = 1               igbmod  = 1               geomod  = 0             
+diomod  = 1               rdsmod  = 0               rbodymod= 0             
+rgatemod= 0               permod  = 1               acnqsmod= 0             
+trnqsmod= 0               tempmod = 0               wpemod  = 1
**************************************************************
*               GENERAL MODEL PARAMETERS 
**************************************************************
+tnom    = 25              toxe    = (2.35e-009+dtoxe_n12ll)  toxp    = (2.35e-009+dtoxp_n12ll)
+toxm    = 2.35e-009       dtox    = 0               epsrox  = 3.9           
+wint    = 1.1e-008        lint    = -2.8e-008       ll      = 3.1454e-014   
+wl      = 0               lln     = 0.75345         wln     = 1             
+lw      = 0               ww      = -7.8284e-015    lwn     = 1             
+wwn     = 0.93014         lwl     = 0               wwl     = 1e-022        
+llc     = 0               wlc     = 0               lwc     = 0             
+wwc     = 0               lwlc    = 0               wwlc    = 0             
+xl      = (-1.2e-008+dxl_n12ll)  xw      = (-1.2e-008+dxw_n12ll)  dlc     = 7e-009      
+dwc     = 0               xpart   = 1               toxref  = 2.35e-009     
+dlcig   = 1e-009     
**************************************************************
*               DC PARAMETERS 
**************************************************************
+vth0    = (0.28+dvth_n12ll)  lvth0   = (-4.48e-008+dlvth0_n12ll)  wvth0   = -1.4214e-008  
+pvth0   = (-2.23e-015+dpvth0_n12ll)  k1      = 0.44            k2      = -0.017        
+lk2     = -4.9767e-009    wk2     = -2.728e-009     pk2     = 2.1218e-016   
+k3      = 12.855          k3b     = 10              w0      = 8.6242e-007   
+dvt0    = 0               dvt1    = 0.3             dvt2    = -0.05         
+dvt0w   = 0.055           dvt1w   = 980000          dvt2w   = 0.2           
+dsub    = 0.56            minv    = 1.5             dvtp0   = -1.5686e-006  
+dvtp1   = 0               lpe0    = 5.1322e-007     plpe0   = 3.6576455e-021
+lpeb    = 0               vbm     = -3              xj      = 1.15e-007     
+ngate   = 3e+021          ndep    = 1.2e+017        nsd     = 1e+020        
+phin    = 0.05            cdsc    = 0.00024         cdscb   = 5e-005        
+cdscd   = 2e-005          cit     = 0.00143         lcit    = 3.15e-010     
+wcit    = -1.848e-010     voff    = -0.085          nfactor = 1             
+eta0    = 0.44            peta0   = 1.5e-016        etab    = -0.088        
+petab   = -1e-016         u0      = 0.0177          lu0     = (2.25e-011+dlu0_n12ll)
+wu0     = -2.8068e-010    pu0     = (5e-017+dpu0_n12ll)  ua      = -1.32e-009    
+lua     = 1e-017          pua     = 2.2001e-024     ub      = 1.52e-018     
+lub     = 7.8507e-027     wub     = 4.0147e-026     pub     = -4.4e-033     
+uc      = 6e-011          luc     = 2.4e-018        wuc     = -1.292e-018   
+puc     = -2.64e-026      eu      = 1.67            vsat    = 150000        
+lvsat   = -0.00625        pvsat   = 9.5e-011        a0      = 3.76          
+la0     = -2e-007         wa0     = -2e-008         ags     = 0.668         
+pags    = 4.625e-014      a1      = 0               a2      = 1             
+b0      = 0               b1      = 0               keta    = 0.018         
+lketa   = 3.5e-010        wketa   = -1.24e-009      pketa   = 9e-017        
+dwg     = 0               dwb     = 0               pclm    = 0.2           
+ppclm   = -1.6e-015       pdiblc1 = 0               pdiblc2 = 0.005         
+pdiblcb = 0               drout   = 0.56            pvag    = 0             
+delta   = 0.01            pscbe1  = 6.24e+008       pscbe2  = 1e-005        
+rsh     = 14.13           rdsw    = 119             rsw     = 59.5          
+rdw     = 59.5            rdswmin = 0               rdwmin  = 0             
+rswmin  = 0               prwg    = 1               prwb    = 0             
+wr      = 1               alpha0  = 1e-008          alpha1  = 0.8           
+beta0   = 12.6            lbeta0  = -8.6e-008       agidl   = 1.8e-011      
+bgidl   = 9.5e+008        cgidl   = 10              egidl   = 0.35          
+aigbacc = 0.038           bigbacc = 0.054           cigbacc = 0.075         
+nigbacc = 1               aigbinv = 0.35            bigbinv = 0.03          
+cigbinv = 0.006           eigbinv = 1.1             nigbinv = 3             
+aigc    = 0.01355         bigc    = 0.0021          cigc    = 0.015         
+aigsd   = 0.01            bigsd   = 0.0002          cigsd   = 0.18          
+nigc    = 2               poxedge = 1               pigcd   = 4.4           
+ntox    = 1               xrcrg1  = 12              xrcrg2  = 1 
+kvth0we = 0.0017          k2we    = 0.0005          web     = -250
+wec     = 25              ku0we   = 0.0005               
**************************************************************
*               CAPACITANCE PARAMETERS 
**************************************************************
+cgso    = (7e-011+dcgso_n12ll)  cgdo    = (7e-011+dcgdo_n12ll)  cgbo    = 0             
+cgdl    = (1e-010+dcgdl_n12ll)  cgsl    = (1e-010+dcgsl_n12ll)  cf      = (8.29e-011+dcf_n12ll)
+acde    = 0.3             moin    = 5.8             noff    = 1.8           
+voffcv  = 0             
**************************************************************
*               TEMPERATURE PARAMETERS 
**************************************************************
+tvoff   = 0.005           ptvoff  = -1e-017         kt1     = -0.185        
+lkt1    = 6.5e-009        wkt1    = 7.5e-010        pkt1    = -5.85e-016    
+kt2     = -0.03           lkt2    = 2e-009          wkt2    = 6.4e-010      
+pkt2    = -3.5e-016       ute     = -0.7            lute    = 1.024e-007    
+wute    = 1.092e-008      pute    = -2.3e-015       ua1     = 2.18e-009     
+lua1    = 1.41e-017       ub1     = -1.55e-018      lub1    = 5.26e-026     
+uc1     = 4.4e-012        luc1    = 1.5e-017        wuc1    = -1.66e-018    
+puc1    = -1e-024         prt     = 0               at      = 10000         
+lat     = 0.00042         pat     = 1.7e-010      
**************************************************************
*               NOISE PARAMETERS 
**************************************************************
+fnoimod = 1               tnoimod = 0               em      = 7e+006        
+ef      = 0.97            noia    = 1.2e+042        noib    = 1.9e+025      
+noic    = 1.2e+008        ntnoi   = 1               lintnoi = 0             
**************************************************************
*               DIODE PARAMETERS 
**************************************************************
+jss     = 1.08e-007       jsws    = 2.78e-014       jswgs   = 2.17e-014     
+njs     = 0.993           ijthsfwd= 0.1             ijthsrev= 0.1           
+bvs     = 10.4            xjbvs   = 1               jtss    = 0             
+jtsd    = 0               jtssws  = 0               jtsswd  = 0             
+jtsswgs = 5e-008          jtsswgd = 5e-008          njts    = 20            
+njtssw  = 20              njtsswg = 20              xtss    = 0.02          
+xtsd    = 0.02            xtssws  = 0.02            xtsswd  = 0.02          
+xtsswgs = 0.02            xtsswgd = 0.02            tnjts   = 0             
+tnjtssw = 0               tnjtsswg= 0               pbs     = 1.04          
+cjs     = (0.00154+dcjs_n12ll)  mjs     = 0.578           pbsws   = 0.185         
+cjsws   = (2.9e-011+dcjsws_n12ll)  mjsws   = 0.194           pbswgs  = 1.19891       
+cjswgs  = (2.6616e-010+dcjswgs_n12ll)  mjswgs  = 0.9             tpb     = 0.0012        
+tcj     = 0.000852        tpbsw   = 0.0001          tcjsw   = 0.0001        
+tpbswg  = 0.001653        tcjswg  = 0.0011109       xtis    = 3             
**************************************************************
*               LAYOUT RELATED PARAMETERS 
**************************************************************
+dmcg    = 6.4e-008        dmdg    = 0               dmcgt   = 0             
+dwj     = 0               xgw     = 0               xgl     = 0             
**************************************************************
*               RF PARAMETERS 
**************************************************************
**************************************************************
*               STRESS PARAMETERS 
**************************************************************
+saref   = 1.75e-007       sbref   = 1.75e-007       wlod    = 0             
+kvth0   = 1.5e-008        lkvth0  = 2e-007          wkvth0  = -5e-008       
+pkvth0  = 2e-014          llodvth = 1               wlodvth = 1             
+stk2    = 0               lodk2   = 1               lodeta0 = 1             
+ku0     = -9e-008         lku0    = 5e-007          wku0    = 1e-006        
+pku0    = 0               llodku0 = 1               wlodku0 = 1             
+kvsat   = 1               steta0  = 0               tku0    = 0            
// *
// ***********************************************************************************
// *                              1.2v core pmos model                               *
// ***********************************************************************************
// *
model  p12ll  bsim4 type = p  
**************************************************************
*               MODEL FLAG PARAMETERS 
**************************************************************
+lmin    = 6e-008          lmax    = 0.0001          wmin    = 1.2e-007      
+wmax    = 0.0001          version = 4.5             binunit = 2             
+paramchk= 1               mobmod  = 0               capmod  = 2             
+igcmod  = 1               igbmod  = 1               geomod  = 0             
+diomod  = 1               rdsmod  = 0               rbodymod= 0             
+rgatemod= 0               permod  = 1               acnqsmod= 0             
+trnqsmod= 0               tempmod = 0               wpemod  = 1
**************************************************************
*               GENERAL MODEL PARAMETERS 
**************************************************************
+tnom    = 25              toxe    = (2.6e-009+dtoxe_p12ll)  toxp    = (2.6e-009+dtoxp_p12ll)
+toxm    = 2.6e-009        dtox    = 0               epsrox  = 3.9           
+wint    = -3.9e-008       lint    = -1.7e-008       ll      = 1.2e-014      
+wl      = 1e-015          lln     = 0.78143         wln     = 1.015         
+lw      = 0               ww      = 8.85e-016       lwn     = 1             
+wwn     = 1               lwl     = 0               wwl     = -6.4478e-023  
+llc     = 0               wlc     = 0               lwc     = 0             
+wwc     = 0               lwlc    = 0               wwlc    = 0             
+xl      = (-1.2e-008+dxl_p12ll)  xw      = (-1.3e-008+dxw_p12ll)  dlc     = 6.5e-009     
+dwc     = 0               xpart   = 1               toxref  = 2.6e-009      
+dlcig   = 1e-009     
**************************************************************
*               DC PARAMETERS 
**************************************************************
+vth0    = (-0.363+dvth_p12ll)  lvth0   = (3.65e-010+dlvth0_p12ll)  wvth0   = 8.8e-009      
+pvth0   = (9e-017+dpvth0_p12ll)  k1      = 0.315           k2      = 0.011         
+k3      = 0.43            k3b     = 3.2             w0      = 3e-008        
+dvt0    = 0.61            dvt1    = 0.53            dvt2    = -0.115        
+dvt0w   = 0               dvt1w   = 0               dvt2w   = 0             
+dsub    = 0.56            minv    = 1.8             voffl   = 0             
+dvtp0   = 0               dvtp1   = 0               lpe0    = 9e-008        
+lpeb    = 2.4e-009        vbm     = -3              xj      = 1.45e-007     
+ngate   = 4.1392e+022     ndep    = 1e+017          nsd     = 1e+020        
+phin    = 0.085           cdsc    = 0.00024         cdscb   = 0             
+cdscd   = 0               cit     = 0.00094         lcit    = 3.5e-010      
+wcit    = -1.2e-010       voff    = -0.087          nfactor = 1.1           
+eta0    = 0.185           etab    = -0.08           petab   = 2e-016        
+ud      = 0               u0      = 0.0085          lu0     = (4e-010+dlu0_p12ll)
+pu0     = (1.9e-17+dpu0_p12ll)  ua      = -1.2e-010       ub      = 1.07e-018     
+lub     = 9.7e-026        wub     = -2.7e-026       uc      = -1.35e-011    
+luc     = 1.5e-017        wuc     = 3e-018          puc     = -1.48e-024    
+eu      = 1.67            vsat    = 69940           lvsat   = -0.00145      
+pvsat   = -8.2e-011       a0      = 3               la0     = -4.2e-007     
+pa0     = -3e-014         ags     = 0.6             a1      = 0             
+a2      = 1               b0      = 1e-008          b1      = 0             
+keta    = -0.01           wketa   = 3.7e-009        pketa   = -6.1e-016     
+dwg     = 0               dwb     = 0               pclm    = 0.928         
+lpclm   = -3.02e-008      pdiblc1 = 1.13e-018       pdiblc2 = 0.004         
+pdiblcb = 0               drout   = 0               pvag    = 0             
+delta   = 0.01            pscbe1  = 8e+008          pscbe2  = 1e-005        
+rsh     = 12.15           rdsw    = 277             rsw     = 138.5         
+rdw     = 138.5           rdswmin = 0               rdwmin  = 0             
+rswmin  = 0               prwg    = 1               prwb    = 0             
+wr      = 1               alpha0  = 8e-012          alpha1  = 0.8           
+beta0   = 16.34           lbeta0  = -1.551e-007     pbeta0  = 6e-015        
+agidl   = 0.002           bgidl   = 2.3e+009        cgidl   = 0.5           
+egidl   = 0.8             aigbacc = 0.0226          bigbacc = 0.018639      
+cigbacc = 0.075           nigbacc = 1               aigbinv = 0.35          
+bigbinv = 0.03            cigbinv = 0.006           eigbinv = 1.1           
+nigbinv = 3               aigc    = 0.0077          bigc    = 0.0005922     
+cigc    = 0.0003          aigsd   = 0.00583         bigsd   = 0             
+cigsd   = 0.066           nigc    = 1.5             poxedge = 1             
+pigcd   = 2.5             ntox    = 1               xrcrg1  = 12            
+xrcrg2  = 1
+kvth0we = -0.0023         k2we    = -0.001          web     = -500
+wec     = 25              ku0we   = -0.0025             
**************************************************************
*               CAPACITANCE PARAMETERS 
**************************************************************
+cgso    = (5.45e-011+dcgso_p12ll)  cgdo    = (5.45e-011+dcgdo_p12ll)  cgbo    = 0             
+cgdl    = (1.28e-010+dcgdl_p12ll)  cgsl    = (1.28e-010+dcgsl_p12ll)  clc     = 1e-007        
+cle     = 0.6             cf      = (8.25e-011+dcf_p12ll)  ckappas = 0.6           
+ckappad = 0.6             vfbcv   = -1              acde    = 0.515         
+moin    = 15              noff    = 1.3605          voffcv  = 0.04          
**************************************************************
*               TEMPERATURE PARAMETERS 
**************************************************************
+tvoff   = 0               ptvoff  = 0               kt1     = -0.316        
+wkt1    = 7.1e-009        pkt1    = -3.78e-016      kt1l    = 1.2e-009      
+kt2     = -0.048          wkt2    = 3e-009          pkt2    = -5.6e-016     
+ute     = -0.5            lute    = 7.2258e-008     pute    = -4.2e-015     
+ua1     = 1.6679e-009     lua1    = -1.7356e-016    wua1    = 3.0451e-016   
+pua1    = -1.22e-023      ub1     = -1.2044e-019    lub1    = 5.825e-025    
+wub1    = -3.62e-025      pub1    = 1.25e-033       uc1     = 1.45e-010     
+luc1    = 4.28e-017       wuc1    = 1.2e-017        prt     = 0             
+at      = 10113           lat     = -0.0012         pat     = 4.76e-011     
**************************************************************
*               NOISE PARAMETERS 
**************************************************************
+fnoimod = 1               tnoimod = 0               em      = 2.84e+007     
+ef      = 1.22            noia    = 4.81e+042       noib    = 3.46e+025     
+noic    = 2.2e+010        ntnoi   = 1             
**************************************************************
*               DIODE PARAMETERS 
**************************************************************
+jss     = 1.6302e-007     jsws    = 3e-014          jswgs   = 1.8064e-014   
+njs     = 0.985           ijthsfwd= 0.1             ijthsrev= 0.1           
+bvs     = 9.8             xjbvs   = 1               jtss    = 0             
+jtsd    = 0               jtssws  = 0               jtsswd  = 0             
+jtsswgs = 6e-007          jtsswgd = 6e-007          njts    = 20            
+njtssw  = 20              njtsswg = 20              xtss    = 0.02          
+xtsd    = 0.02            xtssws  = 0.02            xtsswd  = 0.02          
+xtsswgs = 0.02            xtsswgd = 0.02            tnjts   = 0             
+tnjtssw = 0               tnjtsswg= 0               pbs     = 0.71816       
+cjs     = (0.0010919+dcjs_p12ll)  mjs     = 0.33195         pbsws   = 0.9           
+cjsws   = (2.4e-011+dcjsws_p12ll)  mjsws   = 0.10648         pbswgs  = 0.7           
+cjswgs  = (2.836e-010+dcjswgs_p12ll)  mjswgs  = 0.7626          tpb     = 0.00162       
+tcj     = 0.00097062      tpbsw   = 0.002           tcjsw   = 2.1418e-005   
+tpbswg  = 0.00122         tcjswg  = 0.00122         xtis    = 3             
**************************************************************
*               LAYOUT RELATED PARAMETERS 
**************************************************************
+dmcg    = 6.4e-008        dmdg    = 0               dmcgt   = 0             
+dwj     = 0               xgw     = 0               xgl     = 0             
**************************************************************
*               RF PARAMETERS 
**************************************************************
**************************************************************
*               STRESS PARAMETERS 
**************************************************************
+saref   = 1.75e-007       sbref   = 1.75e-007       wlod    = 0             
+kvth0   = 5e-010          lkvth0  = 1e-008          wkvth0  = 1e-006        
+pkvth0  = 0               llodvth = 1               wlodvth = 1             
+stk2    = 0               lodk2   = 1               lodeta0 = 1             
+ku0     = 2e-013          lku0    = 4e-007          wku0    = 5e-007        
+pku0    = 1e-010          llodku0 = 1               wlodku0 = 1             
+kvsat   = -1              steta0  = 0               tku0    = 0 
// *
// ***********************************************************************************
// *                              1.2v core native nmos model                        *
// ***********************************************************************************
// *
model  nt12ll  bsim4 type = n  
**************************************************************
*               MODEL FLAG PARAMETERS 
**************************************************************
+lmin    = 2e-007          lmax    = 0.0001          wmin    = 5e-007        
+wmax    = 0.0001          version = 4.5             binunit = 2             
+paramchk= 1               mobmod  = 0               capmod  = 2             
+igcmod  = 1               igbmod  = 1               geomod  = 0             
+diomod  = 1               rdsmod  = 0               rbodymod= 0             
+rgatemod= 0               permod  = 1               acnqsmod= 0             
+trnqsmod= 0               tempmod = 0             
**************************************************************
*               GENERAL MODEL PARAMETERS 
**************************************************************
+tnom    = 25              toxe    = (2.37e-009+dtoxe_nt12ll)  toxp    = (2.37e-009+dtoxp_nt12ll)
+toxm    = 2.37e-009       dtox    = 0               epsrox  = 3.9           
+wint    = 1.72e-008       lint    = -3.5e-008       ll      = 5.36e-016     
+wl      = 0               lln     = 1.12            wln     = 1.04          
+lw      = 0               ww      = -1.32e-015      lwn     = 1             
+wwn     = 1.07            lwl     = 0               wwl     = -1.4e-022     
+llc     = 0               wlc     = 0               lwc     = 0             
+wwc     = 0               lwlc    = 0               wwlc    = 0             
+xl      = (-1.2e-008+dxl_nt12ll)  xw      = (-1.2e-008+dxw_nt12ll)  dlc     = 7e-009      
+dwc     = 0               xpart   = 1               toxref  = 2.37e-009     
+dlcig   = 1e-009     
**************************************************************
*               DC PARAMETERS 
**************************************************************
+vth0    = (-0.072+dvth_nt12ll)  lvth0   = (-4.2e-008+dlvth0_nt12ll)  pvth0   = 2e-016        
+k1      = 0.15            k2      = -0.048          k3      = 3             
+k3b     = -1              w0      = 0               dvt0    = 0.05          
+dvt1    = 0.21            dvt2    = -0.03           dvt0w   = 0             
+dvt1w   = 0               dvt2w   = 0               dsub    = 0.56          
+minv    = 0.77496         voffl   = -2.7184e-009    dvtp0   = 0             
+dvtp1   = 0               lpe0    = 2.5e-006        lpeb    = 0             
+vbm     = -3              xj      = 1.15e-007       ngate   = 3e+021        
+ndep    = 1e+016          nsd     = 1e+020          phin    = 0.00023411    
+cdsc    = 0.00024         cdscb   = 0               cdscd   = 0             
+cit     = 0.0022          lcit    = 2.5e-010        wcit    = -1.4e-010     
+pcit    = 8.7e-017        voff    = -0.118          nfactor = 1.1           
+eta0    = 0.02            etab    = -0.01           ud      = 0             
+ud1     = 0               up      = 0               lp      = 1e-008        
+u0      = 0.0455          lu0     = -5.22e-009      wu0     = 3.4e-010      
+pu0     = -3.4296e-016    ua      = 3.8e-010        lua     = -3.42e-016    
+pua     = -2.2e-023       ub      = 1.52e-018       lub     = 1.76e-025     
+wub     = 3.456e-026      pub     = -1.8248e-032    uc      = 1e-011        
+luc     = -1e-018         wuc     = -1.16e-017      puc     = 2.8e-024      
+eu      = 1.67            vsat    = 120000          lvsat   = -0.005        
+pvsat   = -4.1175e-010    a0      = 10              ags     = 0.99          
+lags    = 9e-007          pags    = 1.72e-013       a1      = 1             
+a2      = 0.011           b0      = 0               b1      = 0             
+keta    = 0.057           lketa   = -7e-009         pketa   = -1.7e-015     
+dwg     = 0               dwb     = 0               pclm    = 0.595         
+ppclm   = 1.712e-014      pdiblc1 = 0               pdiblc2 = 0.06          
+pdiblcb = 0               drout   = 0.56            pvag    = 0             
+delta   = 0.01            pscbe1  = 4.24e+008       pscbe2  = 5e-008        
+rsh     = 8.5             rdsw    = 45.4            rsw     = 22.7          
+rdw     = 22.7            rdswmin = 0               rdwmin  = 0             
+rswmin  = 0               prwg    = 1               prwb    = 0             
+wr      = 1               alpha0  = 5.5389e-008     alpha1  = 0.03          
+beta0   = 9               lbeta0  = 4.8e-007        agidl   = 2.5e-006      
+bgidl   = 2.3e+009        cgidl   = 0.5             egidl   = 0.8           
+aigbacc = 0.017           bigbacc = 0.00171         cigbacc = 0.075         
+nigbacc = 1.1             aigbinv = 0.011           bigbinv = 0.000949      
+cigbinv = 0.006           eigbinv = 1.1             nigbinv = 3             
+aigc    = 0.0134          bigc    = 0.00198         cigc    = 0.03          
+aigsd   = 0.0097          bigsd   = 0.00048         cigsd   = 0.15          
+nigc    = 7               poxedge = 0.94            pigcd   = 3.5           
+ntox    = 1               xrcrg1  = 12              xrcrg2  = 1             
**************************************************************
*               CAPACITANCE PARAMETERS 
**************************************************************
+cgso    = (1.2e-010+dcgso_nt12ll)  cgdo    = (1.2e-010+dcgdo_nt12ll)  cgbo    = 0             
+cgdl    = (8e-011+dcgdl_nt12ll)  cgsl    = (8e-011+dcgsl_nt12ll)  cf      = (8.27e-011+dcf_nt12ll)
+acde    = 0.42            moin    = 5.5             noff    = 2.8           
+voffcv  = -0.08         
**************************************************************
*               TEMPERATURE PARAMETERS 
**************************************************************
+tvoff   = 0.0089989       ltvoff  = 2e-010          kt1     = -0.13         
+lkt1    = 2.48e-008       pkt1    = -8e-016         kt1l    = 0             
+kt2     = -0.0024735      lkt2    = 9.9207e-010     ute     = -1.35         
+lute    = 1.368e-007      pute    = 1.134e-014      ua1     = 3.2e-009      
+lua1    = -2.36e-016      wua1    = -6e-017         pua1    = -3.3087e-024  
+ub1     = -4.75e-018      lub1    = 5.2332e-025     pub1    = 3.0247e-032   
+uc1     = -1e-010         luc1    = -1.7486e-017    puc1    = 1.8208e-023   
+prt     = 0               at      = 10000           lat     = -0.014        
+pat     = 1e-009        
**************************************************************
*               NOISE PARAMETERS 
**************************************************************
+fnoimod = 1               tnoimod = 0               em      = 4.1e+007      
+ef      = 0.93            noia    = 5e+041          noib    = 1.8e+024      
+noic    = -1.11e+007      ntnoi   = 1             
**************************************************************
*               DIODE PARAMETERS 
**************************************************************
+jss     = 2e-006          jsws    = 3.5e-013        jswgs   = 3e-013        
+njs     = 0.995           ijthsfwd= 0.1             ijthsrev= 0.1           
+bvs     = 17              xjbvs   = 1               jtss    = 0             
+jtsd    = 0               jtssws  = 0               jtsswd  = 0             
+jtsswgs = 0               jtsswgd = 0               njts    = 20            
+njtssw  = 20              njtsswg = 20              xtss    = 0.02          
+xtsd    = 0.02            xtssws  = 0.02            xtsswd  = 0.02          
+xtsswgs = 0.02            xtsswgd = 0.02            tnjts   = 0             
+tnjtssw = 0               tnjtsswg= 0               pbs     = 0.864         
+cjs     = (0.00030509+dcjs_nt12ll)  mjs     = 0.669           pbsws   = 0.902         
+cjsws   = (4.6e-011+dcjsws_nt12ll)  mjsws   = 0.442           pbswgs  = 0.6992        
+cjswgs  = (3.0997e-011+dcjswgs_nt12ll)  mjswgs  = 0.59981         tpb     = 0.001         
+tcj     = 0.00077745      tpbsw   = 0.001           tcjsw   = 0.00044813    
+tpbswg  = 0.0014          tcjswg  = 0.0019995       xtis    = 3             
**************************************************************
*               LAYOUT RELATED PARAMETERS 
**************************************************************
+dmcg    = 6.4e-008        dmdg    = 0               dmcgt   = 0             