* 
* No part of this file can be released without the consent of SMIC.
*
******************************************************************************************
*            SMIC 0.18um EEPROM 2P6M 1.8V/3.3V/5V/15.5V SPICE model(for ELDO only)       *
******************************************************************************************
*
* Release version    : 1.7
*
* Release date       : 1/13/2010
*
* Simulation tool    : Mentor Graphics's Eldo v6.3_1.1
*
*
*   MIM capacitor    : mim 
*   
*   Valid temperature range is from -55C to 125C
*
*
******************************************************************
*                      MIM Capacitor                             * 
******************************************************************
.model mime2r c
+COX = '9.71E-04+Dmime2r'         TC1 = -3.48E-05          TREF  = 25
*


