* 
* No part of this file can be released without the consent of SMIC.
*
* Note: SMIC recommends that users set VNTOL=1E-9 at .option for more smooth convergence.
*************************************************************************************************************
* SMIC 65nm Low Leakage 1P10M(1P9M, 1P8M, 1P7M, 1P6M) Salicide 1.2V/1.8V/2.5V SPICE model (for HSPICE only) * 
*************************************************************************************************************
*
* Release version    : 1.0
*
* Release date       : 09/30/2009
*
* Simulation tool    : Synopsys Star-HSPICE version 2006.09-SP1
*
* Model type         :
*   MOSFET           : HSPICE Level 54(BSIM4v4.5)
*   Junction Diode   : HSPICE Level 3
* 
* Model and subcircuit name:
*   MOSFET           :
*        *-----------------------------------------------------------*
*        |     MOSFET model   |    1.2V    |    1.8V    |    2.5V    |
*        |===========================================================|
*        |        NMOS        |  n12ll_rf  |  n18ll_rf  |  n25ll_rf  |
*        *--------------------|------------|------------|------------*
*        |       DNWMOS       | dnw12ll_rf | dnw18ll_rf | dnw25ll_rf |
*        *--------------------|------------|------------|------------*
*        |        PMOS        |  p12ll_rf  |  p18ll_rf  |  p25ll_rf  |
*        *-----------------------------------------------------------*
*
*        *--------------------------------------------------------------------------*
*        |     MOSFET subckt     |      1.2V      |      1.8V      |      2.5V      | 
*        |==========================================================================|
*        |         NMOS          |  n12ll_ckt_rf  |  n18ll_ckt_rf  |  n25ll_ckt_rf  |
*        *----------------------------------------|----------------|----------------*
*        |        DNWMOS         | dnw12ll_ckt_rf | dnw18ll_ckt_rf | dnw25ll_ckt_rf |
*        *----------------------------------------|----------------|----------------*
*        |         PMOS          |  p12ll_ckt_rf  |  p18ll_ckt_rf  |  p25ll_ckt_rf  | 
*        *--------------------------------------------------------------------------*
*
***************************
* 1.2V RF NMOS Subcircuit *
***************************
* 11=drain, 2=gate, 31=source, 4=bulk
* lr=gate length, wr=finger width, nf=finger number
.subckt n12ll_ckt_rf 1 2 3 4 lr=l wr=w nf=finger sar=sa sbr=sb sdr=sd
* scalable unit parameter
* euqivalent circuit saclable parameter
.param
+Rc_n12ll    = '47.31/pwr(wr*1e6,0.8)'
*****************************************
Lgate       2 20  1p
Ldrain       1 11 1p
Lsource      3 31 1p
Rgate       20 21 R='max(((107.97*pwr(wr*1e6,-1.7494))*pwr(lr*1e6,(-0.3651*log(wr*1e6)-0.8387)))*pwr(nf,(0.0284*wr*1e6-0.5014)*pwr(lr*1e6,(-0.0186*wr*1e6-0.1414))), 1e-3)'
Cgd_ext     20 11 C='max((((0.2527*wr*1e6+0.4395)*lr*1e6+(0.269*wr*1e6+0.0619))*nf+((0.1784*wr*1e6-0.2511)*log(lr*1e6)+(0.5043*wr*1e6-0.6047)))*1e-15*((2.0338*V(2,0)+0.9043*V(1,0)-1.5869*V(2,0)*V(1,0)-1.2405)*log(lr*1e6)+(6.2606*V(2,0)+2.7269*V(1,0)-4.8486*V(2,0)*V(1,0)-2.803)), 1e-15)'
Cgs_ext     20 31 C='max((((-0.028*log(wr*1e6)+0.1096)*pwr(lr*1e6,(-0.2445*log(wr*1e6)-0.3618)))*nf+((-24.028*log(wr*1e6)-4.9493)*lr*1e6+(2.4947*log(wr*1e6)+0.4611)))*1e-15*(0.283*V(2,0)+0.0145*V(1,0)+0.1062*V(1,0)*V(2,0)+0.4901), 1e-16)'
Cds_ext     15 31 C='max(((((-1.3262*wr*1e6+0.2256)*lr*1e6+(0.9944*wr*1e6-0.5315))*nf+((-0.0987*pwr(wr*1e6,2.4762)*log(lr*1e6)+(-0.779*pwr(wr*1e6,1.9258)))))*(1.5102*pwr(wr*1e6,-0.3036)))*1e-15*(-0.2804*V(2,0)-0.3688*V(1,0)+0.4711*V(1,0)*V(2,0)+1.1006), 1e-15)'
Rds         11 15 R='max(((-211.16*wr*1e6+1718.3)*log(lr*1e6)+(-3209.9*log(wr*1e6)+7570.3))*pwr(nf,(0.0064*wr*1e6-0.3097)*lr*1e6-(-0.0129*wr*1e6+0.8354)),1)'
Rsub1      41  4  R='max(((5.5885*pwr(wr*1e6,1.6339))*pwr(lr*1e6,(0.9758*log(wr*1e6)-3.1074)))*pwr(nf,(-0.3328*wr*1e6+2.4946)*lr*1e6-(-0.0409*wr*1e6+0.9155)),1e-3)'
Rsub2      41  12 1e5
Rsub3      41  32 1e5
*****************************************
Djdb  12 11
+ ndio12ll_rf
+ AREA  = 'nf/2*wr*(0.24-0.072)*1e-6'
+ PJ    = '(1+1.8269e-8/wr)*nf*wr'
***
Djsb  32 31
+ ndio12ll_rf
+ AREA  = 'wr*(0.45-0.036)*2*1e-6+(nf/2-1)*wr*(0.24-0.072)*1e-6'
+ PJ    = '(1+1.8269e-8/wr)*nf*wr'
*
* --------- ideal mos transistor ----------------------
MAIN 11 21 31 41 n12ll_rf L=lr W=wr m=nf SA=sar SB=sbr SD=sdr RDC=Rc_n12ll RSC=Rc_n12ll AD = 0 AS = 0 PD = 0 PS = 0
.model  n12ll_rf  nmos  level = 54
**************************************************************
*               MODEL FLAG PARAMETERS 
**************************************************************
+lmin    = 6e-008          lmax    = 0.0001          wmin    = 1.2e-007      
+wmax    = 0.0001          version = 4.5             binunit = 2             
+paramchk= 1               mobmod  = 0               capmod  = 2             
+igcmod  = 1               igbmod  = 1               geomod  = 0             
+diomod  = 1               rdsmod  = 0               rbodymod= 0             
+rgatemod= 0               permod  = 1               acnqsmod= 0             
+trnqsmod= 0               tempmod = 0               wpemod  = 1 
**************************************************************
*               GENERAL MODEL PARAMETERS 
**************************************************************
+tnom    = 25              toxe    = '2.35e-009+dtoxe_n12ll_rf'       toxp    = '2.35e-009+dtoxp_n12ll_rf'     
+toxm    = 2.35e-009       dtox    = 0               epsrox  = 3.9           
+wint    = 1.1e-008        lint    = -2.8e-008       ll      = 3.1454e-014   
+wl      = 0               lln     = 0.75345         wln     = 1             
+lw      = 0               ww      = -7.8284e-015    lwn     = 1             
+wwn     = 0.93014         lwl     = 0               wwl     = 1e-022        
+llc     = 0               wlc     = 0               lwc     = 0             
+wwc     = 0               lwlc    = 0               wwlc    = 0             
+xl      = '-1.2e-008+dxl_n12ll_rf'       xw      = '-1.2e-008+dxw_n12ll_rf'       dlc     = 7e-009      
+dwc     = 0               xpart   = 1               toxref  = 2.35e-009     
+dlcig   = 1e-009     
**************************************************************
*               DC PARAMETERS 
**************************************************************
+vth0    = '0.28+dvth_n12ll_rf'            lvth0   = '-4.48e-008+dlvth0_n12ll_rf'      wvth0   = -1.4214e-008  
+pvth0   = '-2.23e-015+dpvth0_n12ll_rf'      k1      = 0.44            k2      = -0.017        
+lk2     = -4.9767e-009    wk2     = -2.728e-009     pk2     = 2.1218e-016   
+k3      = 12.855          k3b     = 10              w0      = 8.6242e-007   
+dvt0    = 0               dvt1    = 0.3             dvt2    = -0.05         
+dvt0w   = 0.055           dvt1w   = 980000          dvt2w   = 0.2           
+dsub    = 0.56            minv    = 1.5             dvtp0   = -1.5686e-006  
+dvtp1   = 0               lpe0    = 5.1322e-007     plpe0   = 3.6576455e-021
+lpeb    = 0               vbm     = -3              xj      = 1.15e-007     
+ngate   = 3e+021          ndep    = 1.2e+017        nsd     = 1e+020        
+phin    = 0.05            cdsc    = 0.00024         cdscb   = 5e-005        
+cdscd   = 2e-005          cit     = 0.00143         lcit    = 3.15e-010     
+wcit    = -1.848e-010     voff    = -0.085          nfactor = 1             
+eta0    = 0.44            peta0   = 1.5e-016        etab    = -0.088        
+petab   = -1e-016         u0      = 0.0177          lu0     = '2.25e-011+dlu0_n12ll_rf'  
+wu0     = -2.8068e-010    pu0     = '5e-017+dpu0_n12ll_rf'       ua      = -1.32e-009    
+lua     = 1e-017          pua     = 2.2001e-024     ub      = 1.52e-018     
+lub     = 7.8507e-027     wub     = 4.0147e-026     pub     = -4.4e-033     
+uc      = 6e-011          luc     = 2.4e-018        wuc     = -1.292e-018   
+puc     = -2.64e-026      eu      = 1.67            vsat    = 150000        
+lvsat   = -0.00625        pvsat   = 9.5e-011        a0      = 3.76          
+la0     = -2e-007         wa0     = -2e-008         ags     = 0.668         
+pags    = 4.625e-014      a1      = 0               a2      = 1             
+b0      = 0               b1      = 0               keta    = 0.018         
+lketa   = 3.5e-010        wketa   = -1.24e-009      pketa   = 9e-017        
+dwg     = 0               dwb     = 0               pclm    = 0.2           
+ppclm   = -1.6e-015       pdiblc1 = 0               pdiblc2 = 0.005         
+pdiblcb = 0               drout   = 0.56            pvag    = 0             
+delta   = 0.01            pscbe1  = 6.24e+008       pscbe2  = 1e-005        
+rsh     = 14.13           rdsw    = 0               rsw     = 0          
+rdw     = 0               rdswmin = 0               rdwmin  = 0             
+rswmin  = 0               prwg    = 1               prwb    = 0             
+wr      = 1               alpha0  = 1e-008          alpha1  = 0.8           
+beta0   = 12.6            lbeta0  = -8.6e-008       agidl   = 1.8e-011      
+bgidl   = 9.5e+008        cgidl   = 10              egidl   = 0.35          
+aigbacc = 0.038           bigbacc = 0.054           cigbacc = 0.075         
+nigbacc = 1               aigbinv = 0.35            bigbinv = 0.03          
+cigbinv = 0.006           eigbinv = 1.1             nigbinv = 3             
+aigc    = 0.01355         bigc    = 0.0021          cigc    = 0.015         
+aigsd   = 0.01            bigsd   = 0.0002          cigsd   = 0.18          
+nigc    = 2               poxedge = 1               pigcd   = 4.4           
+ntox    = 1               xrcrg1  = 12              xrcrg2  = 1 
+kvth0we = 0.0017          k2we    = 0.0005          web     = -250
+wec     = 25              ku0we   = 0.0005          
**************************************************************
*               CAPACITANCE PARAMETERS 
**************************************************************
+CGSO    = 1E-018          CGDO    = 1E-018          CGBO    = 0
+CGDL    = 0               CGSL    = 0               CF      = 1E-018
+ACDE    = 0.3             MOIN    = 5.8             NOFF    = 1.8
+VOFFCV  = 0
**************************************************************
*               TEMPERATURE PARAMETERS 
**************************************************************
+tvoff   = 0.005           ptvoff  = -1e-017         kt1     = -0.185        
+lkt1    = 6.5e-009        wkt1    = 7.5e-010        pkt1    = -5.85e-016    
+kt2     = -0.03           lkt2    = 2e-009          wkt2    = 6.4e-010      
+pkt2    = -3.5e-016       ute     = -0.7            lute    = 1.024e-007    
+wute    = 1.092e-008      pute    = -2.3e-015       ua1     = 2.18e-009     
+lua1    = 1.41e-017       ub1     = -1.55e-018      lub1    = 5.26e-026     
+uc1     = 4.4e-012        luc1    = 1.5e-017        wuc1    = -1.66e-018    
+puc1    = -1e-024         prt     = 0               at      = 10000         
+lat     = 0.00042         pat     = 1.7e-010      
**************************************************************
*               NOISE PARAMETERS 
**************************************************************
+fnoimod = 1               tnoimod = 0               em      = 7e+006        
+ef      = 0.97            noia    = 1.2e+042        noib    = 1.9e+025      
+noic    = 1.2e+008        ntnoi   = 1               lintnoi = 0             
**************************************************************
*               DIODE PARAMETERS 
**************************************************************
+jss     = 1.08e-007       jsws    = 2.78e-014       jswgs   = 2.17e-014     
+njs     = 0.993           ijthsfwd= 0.1             ijthsrev= 0.1           
+bvs     = 10.4            xjbvs   = 1               jtss    = 0             
+jtsd    = 0               jtssws  = 0               jtsswd  = 0             
+jtsswgs = 5e-008          jtsswgd = 5e-008          njts    = 20            
+njtssw  = 20              njtsswg = 20              xtss    = 0.02          
+xtsd    = 0.02            xtssws  = 0.02            xtsswd  = 0.02          
+xtsswgs = 0.02            xtsswgd = 0.02            tnjts   = 0             
+tnjtssw = 0               tnjtsswg= 0               pbs     = 1.04          
+cjs     = 0               mjs     = 0.578           pbsws   = 0.185         
+cjsws   = 0               mjsws   = 0.194           pbswgs  = 1.19891       
+cjswgs  = 0               mjswgs  = 0.9             tpb     = 0.0012        
+tcj     = 0.000852        tpbsw   = 0.0001          tcjsw   = 0.0001        
+tpbswg  = 0.001653        tcjswg  = 0.0011109       xtis    = 3     
+rdc     = 'rc_n12ll'      rsc     = 'rc_n12ll'               
**************************************************************
*               LAYOUT RELATED PARAMETERS 
**************************************************************
+dmcg    = 6.4e-008        dmdg    = 0               dmcgt   = 0             
+dwj     = 0               xgw     = 0               xgl     = 0             
**************************************************************
*               RF PARAMETERS 
**************************************************************
**************************************************************
*               STRESS PARAMETERS 
**************************************************************
+saref   = 1.75e-007       sbref   = 1.75e-007       wlod    = 0             
+kvth0   = 1.5e-008        lkvth0  = 2e-007          wkvth0  = -5e-008       
+pkvth0  = 2e-014          llodvth = 1               wlodvth = 1             
+stk2    = 0               lodk2   = 1               lodeta0 = 1             
+ku0     = -9e-008         lku0    = 5e-007          wku0    = 1e-006        
+pku0    = 0               llodku0 = 1               wlodku0 = 1             
+kvsat   = 1               steta0  = 0               tku0    = 0           
*
.model ndio12ll_rf D
+LEVEL    = 3                   JS       = 1.08E-07            JSW      = 2.78E-14
+N        = 9.93E-01
+RS       = 1.60E-08            IK       = 4.29E+05
+IKR      = 2.78E+05            BV       = 10.4                IBV      = 277.8
+TRS      = 1.22E-03            EG       = 1.16                TREF     = 25.0
+XTI      = 3.0                 TLEV     = 1                   TLEVC    = 1
+CJ       = '0.00154+dcjs_n12ll_rf'             CJSW     = '2.6616E-010+dcjswgs_n12ll_rf'
+MJ       = 5.78E-01            PB       = 1.04E+00
+MJSW     = 0.9                 PHP      = 1.19891
+CTA      = 8.52E-04            CTP      = 0.0011109           TPB      = 1.20E-03
+TPHP     = 0.001653            FC       = 0                   FCS      = 0
+AREA     = 3.6E-9              PJ       = 2.4E-4
.ends n12ll_ckt_rf
*****************************
* 1.2V RF DNWMOS Subcircuit *
*****************************
* 11=drain, 2=gate, 31=source, 4=bulk, 5=DNW
* lr=gate length, wr=finger width, nf=finger number, laddr=DNW diode add length, waddr=DNW diode add width
.subckt dnw12ll_ckt_rf 1 2 3 4 5 lr=l wr=w nf=finger laddr=ladd waddr=wadd sar=sa sbr=sb sdr=sd
* scalable unit parameter
* euqivalent circuit saclable parameter
.param
+Rc_n12ll    = '47.31/pwr(wr*1e6,0.8)'
*****************************************
Lgate       2 20  1p
Ldrain       1 11 1p
Lsource      3 31 1p
Rgate       20 21 R='max(((107.97*pwr(wr*1e6,-1.7494))*pwr(lr*1e6,(-0.3651*log(wr*1e6)-0.8387)))*pwr(nf,(0.0284*wr*1e6-0.5014)*pwr(lr*1e6,(-0.0186*wr*1e6-0.1414))), 1e-3)'
Cgd_ext     20 11 C='max((((0.2527*wr*1e6+0.4395)*lr*1e6+(0.269*wr*1e6+0.0619))*nf+((0.1784*wr*1e6-0.2511)*log(lr*1e6)+(0.5043*wr*1e6-0.6047)))*1e-15*((2.0338*V(2,0)+0.9043*V(1,0)-1.5869*V(2,0)*V(1,0)-1.2405)*log(lr*1e6)+(6.2606*V(2,0)+2.7269*V(1,0)-4.8486*V(2,0)*V(1,0)-2.803)), 1e-15)'
Cgs_ext     20 31 C='max((((-0.028*log(wr*1e6)+0.1096)*pwr(lr*1e6,(-0.2445*log(wr*1e6)-0.3618)))*nf+((-24.028*log(wr*1e6)-4.9493)*lr*1e6+(2.4947*log(wr*1e6)+0.4611)))*1e-15*(0.283*V(2,0)+0.0145*V(1,0)+0.1062*V(1,0)*V(2,0)+0.4901), 1e-16)'
Cds_ext     15 31 C='max(((((-1.3262*wr*1e6+0.2256)*lr*1e6+(0.9944*wr*1e6-0.5315))*nf+((-0.0987*pwr(wr*1e6,2.4762)*log(lr*1e6)+(-0.779*pwr(wr*1e6,1.9258)))))*(1.5102*pwr(wr*1e6,-0.3036)))*1e-15*(-0.2804*V(2,0)-0.3688*V(1,0)+0.4711*V(1,0)*V(2,0)+1.1006), 1e-15)'
Rds         11 15 R='max(((-211.16*wr*1e6+1718.3)*log(lr*1e6)+(-3209.9*log(wr*1e6)+7570.3))*pwr(nf,(0.0064*wr*1e6-0.3097)*lr*1e6-(-0.0129*wr*1e6+0.8354)),1)'
Rsub1      41  4  R='max(((5.5885*pwr(wr*1e6,1.6339))*pwr(lr*1e6,(0.9758*log(wr*1e6)-3.1074)))*pwr(nf,(-0.3328*wr*1e6+2.4946)*lr*1e6-(-0.0409*wr*1e6+0.9155)),1e-3)'
Rsub2      41  12 1e5
Rsub3      41  32 1e5
*****************************************
Djdb  12 11
+ ndio12ll_rf
+ AREA  = 'nf/2*wr*(0.24-0.072)*1e-6'
+ PJ    = '(1+1.8269e-8/wr)*nf*wr'
***
Djsb  32 31
+ ndio12ll_rf
+ AREA  = 'wr*(0.45-0.036)*2*1e-6+(nf/2-1)*wr*(0.24-0.072)*1e-6'
+ PJ    = '(1+1.8269e-8/wr)*nf*wr'
***
Djbdn  4 5
+ rwd12ll_rf
+ AREA  = '(2*0.45e-6+lr*nf+0.24e-6*(nf-1)+2*laddr)*(wr+2*waddr)'
+ PJ    = '2*(2*0.45e-6+lr*nf+0.24e-6*(nf-1)+wr+2*(laddr+waddr))'
* --------- ideal mos transistor ----------------------
MAIN 11 21 31 41 dnw12ll_rf L=lr W=wr m=nf SA=sar SB=sbr SD=sdr RDC=Rc_n12ll RSC=Rc_n12ll AD = 0 AS = 0 PD = 0 PS = 0
.model  dnw12ll_rf  nmos  level = 54
**************************************************************
*               MODEL FLAG PARAMETERS 
**************************************************************
+lmin    = 6e-008          lmax    = 0.0001          wmin    = 1.2e-007      
+wmax    = 0.0001          version = 4.5             binunit = 2             
+paramchk= 1               mobmod  = 0               capmod  = 2             
+igcmod  = 1               igbmod  = 1               geomod  = 0             
+diomod  = 1               rdsmod  = 0               rbodymod= 0             
+rgatemod= 0               permod  = 1               acnqsmod= 0             
+trnqsmod= 0               tempmod = 0               wpemod  = 1 
**************************************************************
*               GENERAL MODEL PARAMETERS 
**************************************************************
+tnom    = 25              toxe    = '2.35e-009+dtoxe_n12ll_rf'       toxp    = '2.35e-009+dtoxp_n12ll_rf'     
+toxm    = 2.35e-009       dtox    = 0               epsrox  = 3.9           
+wint    = 1.1e-008        lint    = -2.8e-008       ll      = 3.1454e-014   
+wl      = 0               lln     = 0.75345         wln     = 1             
+lw      = 0               ww      = -7.8284e-015    lwn     = 1             
+wwn     = 0.93014         lwl     = 0               wwl     = 1e-022        
+llc     = 0               wlc     = 0               lwc     = 0             
+wwc     = 0               lwlc    = 0               wwlc    = 0             
+xl      = '-1.2e-008+dxl_n12ll_rf'       xw      = '-1.2e-008+dxw_n12ll_rf'       dlc     = 7e-009      
+dwc     = 0               xpart   = 1               toxref  = 2.35e-009     
+dlcig   = 1e-009     
**************************************************************
*               DC PARAMETERS 
**************************************************************
+vth0    = '0.28+dvth_n12ll_rf'            lvth0   = '-4.48e-008+dlvth0_n12ll_rf'      wvth0   = -1.4214e-008  
+pvth0   = '-2.23e-015+dpvth0_n12ll_rf'      k1      = 0.44            k2      = -0.017        
+lk2     = -4.9767e-009    wk2     = -2.728e-009     pk2     = 2.1218e-016   
+k3      = 12.855          k3b     = 10              w0      = 8.6242e-007   
+dvt0    = 0               dvt1    = 0.3             dvt2    = -0.05         
+dvt0w   = 0.055           dvt1w   = 980000          dvt2w   = 0.2           
+dsub    = 0.56            minv    = 1.5             dvtp0   = -1.5686e-006  
+dvtp1   = 0               lpe0    = 5.1322e-007     plpe0   = 3.6576455e-021
+lpeb    = 0               vbm     = -3              xj      = 1.15e-007     
+ngate   = 3e+021          ndep    = 1.2e+017        nsd     = 1e+020        
+phin    = 0.05            cdsc    = 0.00024         cdscb   = 5e-005        
+cdscd   = 2e-005          cit     = 0.00143         lcit    = 3.15e-010     
+wcit    = -1.848e-010     voff    = -0.085          nfactor = 1             
+eta0    = 0.44            peta0   = 1.5e-016        etab    = -0.088        
+petab   = -1e-016         u0      = 0.0177          lu0     = '2.25e-011+dlu0_n12ll_rf'  
+wu0     = -2.8068e-010    pu0     = '5e-017+dpu0_n12ll_rf'       ua      = -1.32e-009    
+lua     = 1e-017          pua     = 2.2001e-024     ub      = 1.52e-018     
+lub     = 7.8507e-027     wub     = 4.0147e-026     pub     = -4.4e-033     
+uc      = 6e-011          luc     = 2.4e-018        wuc     = -1.292e-018   
+puc     = -2.64e-026      eu      = 1.67            vsat    = 150000        
+lvsat   = -0.00625        pvsat   = 9.5e-011        a0      = 3.76          
+la0     = -2e-007         wa0     = -2e-008         ags     = 0.668         
+pags    = 4.625e-014      a1      = 0               a2      = 1             
+b0      = 0               b1      = 0               keta    = 0.018         
+lketa   = 3.5e-010        wketa   = -1.24e-009      pketa   = 9e-017        
+dwg     = 0               dwb     = 0               pclm    = 0.2           
+ppclm   = -1.6e-015       pdiblc1 = 0               pdiblc2 = 0.005         
+pdiblcb = 0               drout   = 0.56            pvag    = 0             
+delta   = 0.01            pscbe1  = 6.24e+008       pscbe2  = 1e-005        
+rsh     = 14.13           rdsw    = 0               rsw     = 0          
+rdw     = 0               rdswmin = 0               rdwmin  = 0             
+rswmin  = 0               prwg    = 1               prwb    = 0             
+wr      = 1               alpha0  = 1e-008          alpha1  = 0.8           
+beta0   = 12.6            lbeta0  = -8.6e-008       agidl   = 1.8e-011      
+bgidl   = 9.5e+008        cgidl   = 10              egidl   = 0.35          
+aigbacc = 0.038           bigbacc = 0.054           cigbacc = 0.075         
+nigbacc = 1               aigbinv = 0.35            bigbinv = 0.03          
+cigbinv = 0.006           eigbinv = 1.1             nigbinv = 3             
+aigc    = 0.01355         bigc    = 0.0021          cigc    = 0.015         
+aigsd   = 0.01            bigsd   = 0.0002          cigsd   = 0.18          
+nigc    = 2               poxedge = 1               pigcd   = 4.4           
+ntox    = 1               xrcrg1  = 12              xrcrg2  = 1 
+kvth0we = 0.0017          k2we    = 0.0005          web     = -250
+wec     = 25              ku0we   = 0.0005          
**************************************************************
*               CAPACITANCE PARAMETERS 
**************************************************************
+CGSO    = 1E-018          CGDO    = 1E-018          CGBO    = 0
+CGDL    = 0               CGSL    = 0               CF      = 1E-018
+ACDE    = 0.3             MOIN    = 5.8             NOFF    = 1.8
+VOFFCV  = 0
**************************************************************
*               TEMPERATURE PARAMETERS 
**************************************************************
+tvoff   = 0.005           ptvoff  = -1e-017         kt1     = -0.185        
+lkt1    = 6.5e-009        wkt1    = 7.5e-010        pkt1    = -5.85e-016    
+kt2     = -0.03           lkt2    = 2e-009          wkt2    = 6.4e-010      
+pkt2    = -3.5e-016       ute     = -0.7            lute    = 1.024e-007    
+wute    = 1.092e-008      pute    = -2.3e-015       ua1     = 2.18e-009     
+lua1    = 1.41e-017       ub1     = -1.55e-018      lub1    = 5.26e-026     
+uc1     = 4.4e-012        luc1    = 1.5e-017        wuc1    = -1.66e-018    
+puc1    = -1e-024         prt     = 0               at      = 10000         
+lat     = 0.00042         pat     = 1.7e-010      
**************************************************************
*               NOISE PARAMETERS 
**************************************************************
+fnoimod = 1               tnoimod = 0               em      = 7e+006        
+ef      = 0.97            noia    = 1.2e+042        noib    = 1.9e+025      
+noic    = 1.2e+008        ntnoi   = 1               lintnoi = 0             
**************************************************************
*               DIODE PARAMETERS 
**************************************************************
+jss     = 1.08e-007       jsws    = 2.78e-014       jswgs   = 2.17e-014     
+njs     = 0.993           ijthsfwd= 0.1             ijthsrev= 0.1           
+bvs     = 10.4            xjbvs   = 1               jtss    = 0             
+jtsd    = 0               jtssws  = 0               jtsswd  = 0             
+jtsswgs = 5e-008          jtsswgd = 5e-008          njts    = 20            
+njtssw  = 20              njtsswg = 20              xtss    = 0.02          
+xtsd    = 0.02            xtssws  = 0.02            xtsswd  = 0.02          
+xtsswgs = 0.02            xtsswgd = 0.02            tnjts   = 0             
+tnjtssw = 0               tnjtsswg= 0               pbs     = 1.04          
+cjs     = 0               mjs     = 0.578           pbsws   = 0.185         
+cjsws   = 0               mjsws   = 0.194           pbswgs  = 1.19891       
+cjswgs  = 0               mjswgs  = 0.9             tpb     = 0.0012        
+tcj     = 0.000852        tpbsw   = 0.0001          tcjsw   = 0.0001        
+tpbswg  = 0.001653        tcjswg  = 0.0011109       xtis    = 3     
+rdc     = 'rc_n12ll'      rsc     = 'rc_n12ll'               
**************************************************************
*               LAYOUT RELATED PARAMETERS 
**************************************************************
+dmcg    = 6.4e-008        dmdg    = 0               dmcgt   = 0             
+dwj     = 0               xgw     = 0               xgl     = 0             
**************************************************************
*               RF PARAMETERS 
**************************************************************
**************************************************************
*               STRESS PARAMETERS 
**************************************************************
+saref   = 1.75e-007       sbref   = 1.75e-007       wlod    = 0             
+kvth0   = 1.5e-008        lkvth0  = 2e-007          wkvth0  = -5e-008       
+pkvth0  = 2e-014          llodvth = 1               wlodvth = 1             
+stk2    = 0               lodk2   = 1               lodeta0 = 1             
+ku0     = -9e-008         lku0    = 5e-007          wku0    = 1e-006        
+pku0    = 0               llodku0 = 1               wlodku0 = 1             
+kvsat   = 1               steta0  = 0               tku0    = 0           
*
.MODEL ndio12ll_rf d
+LEVEL    = 3                   JS       = 1.08E-07            JSW      = 2.78E-14
+N        = 9.93E-01
+RS       = 1.60E-08            IK       = 4.29E+05
+IKR      = 2.78E+05            BV       = 10.4                IBV      = 277.8
+TRS      = 1.22E-03            EG       = 1.16                TREF     = 25.0
+XTI      = 3.0                 TLEV     = 1                   TLEVC    = 1
+CJ       = '0.00154+dcjs_n12ll_rf'             CJSW     = '2.6616E-010+dcjswgs_n12ll_rf'
+MJ       = 5.78E-01            PB       = 1.04E+00
+MJSW     = 0.9                 PHP      = 1.19891
+CTA      = 8.52E-04            CTP      = 0.0011109           TPB      = 1.20E-03
+TPHP     = 0.001653            FC       = 0                   FCS      = 0
+AREA     = 3.6E-9              PJ       = 2.4E-4
******
.model rwd12ll_rf d
+LEVEL    = 3                   JS       = 1.4068E-07              
+JSW      = 3E-13                                              
+N        = 0.98337                                                  
+RS       = 1.7581E-08          IK       = 3.7528E+05                              
+IKR      = 1.67E+05            BV       = 11.2                IBV      = 166.7    
+TRS      = 2.5683E-03          EG       = 1.16                TREF     = 25.0     
+XTI      = 3.0                 TLEV     = 1                   TLEVC    = 1        
+CJ       = 4.6412E-04                                           
+CJSW     = 7.2244E-10                                           
+MJ       = 0.34253             PB       = 0.66901                                      
+MJSW     = 0.27094             PHP      = 0.65028                                    
+CTA      = 1.4561E-03          CTP      = 7.2533E-04          TPB      = 2.1039E-03
+TPHP     = 1.3446E-03          FC       = 0                   FCS      = 0        
+AREA     = 6.0e-9              PJ       = 3.2e-4                                  
.ends dnw12ll_ckt_rf
***************************
* 1.2V RF PMOS Subcircuit *
***************************
* 11=drain, 2=gate, 31=source, 4=bulk
* lr=gate length, wr=finger width, nf=finger number
.subckt p12ll_ckt_rf 1 2 3 4 lr=l wr=w nf=finger sar=sa sbr=sb sdr=sd
* scalable unit parameter
* euqivalent circuit saclable parameter
.param
+Rg_rf        = 'max(((-4.25293399E+01*lr*lr*1e6*1e6+1.62715634E+01*lr*1e6-5.67588523E+00)*wr*1e6+(4.65471979E+02*lr*lr*1e6*1e6-2.15579101E+02*lr*1e6+2.96752609E+02))*pwr(nf,(3.88902992E+00*lr*lr*1e6*1e6-1.37514974E+00*lr*1e6+4.38112929E-02)*wr*1e6+(-4.03243605E+00*lr*lr*1e6*1e6-1.47867266E-01*lr*1e6-3.75690820E-01)), 1e-3)'
+Cgd_rf       = '(((4.37809526E-16*lr*1e6+2.46257143E-16)*wr*1e6+(2.17220239E-16*lr*1e6+1.00833929E-16))*nf+(5.37175000E-17*lr*1e6+2.15767500E-17)*wr*1e6+(1.64348542E-15*lr*1e6-1.21275625E-16))'
+Cgs_rf       = '(((4.87327685E-15*lr*1e6*lr*1e6-2.10549925E-15*lr*1e6+2.01413658E-16)*wr*1e6+(-1.03564352E-15*lr*1e6*lr*1e6-7.60704167E-17*lr*1e6+1.78465042E-16))*nf+(-4.38650463E-15*lr*1e6*lr*1e6+1.53819375E-15*lr*1e6+1.97967292E-16)*wr*1e6+(-8.01284722E-15*lr*1e6*lr*1e6+5.80644792E-15*lr*1e6-1.56781250E-17))'