//*Spectre Model Format
simulator lang=spectre  insensitive=yes

// *
// * no part of this file can be released without the consent of smic.
// *
// ******************************************************************************************
// *            smic 0.18um eeprom 2p6m 1.8v/3.3v/5v/15.5v spice model(for SPECTRE only)     *
// ******************************************************************************************
// *
// * release version    : 1.7
// *
// * release date       : 1/13/2010
// *
// * Simulation Tool    : Cadence SPECTRE V6.0
// *
// * Model Type         :
// *    MOSFET          : BSIM3v3.24 for 1.8V MOSFET, BSIM3v3.2 for other MOSFET 
// *   Junction Diode   : SPECTRE level 1
// * model name         :
// *
// *   mosfet           :
// *        *--------------------------------------*
// *        |   mosfet type      |  1.8v/3.3v/hv   |
// *        |======================================|
// *        |   1.8v nmos        |     n18e2r      |
// *        *--------------------------------------*
// *        |   1.8v pmos        |     p18e2r      |
// *        *--------------------------------------*
// *        |   1.8v native nmos |     nz18e2r     |
// *        *--------------------------------------*
// *        |   3.3v mv nmos     |     n33e2r      |
// *        *--------------------------------------*
// *        |   3.3v mv pmos     |     p33e2r      |
// *        *--------------------------------------*
// *        |   5v hv nmos       |     n50e2r      |
// *        *--------------------------------------*
// *        |   5v hv pmos       |     p50e2r      |
// *        *--------------------------------------*
// *        |   5v hv zmos       |     nz50e2r     |
// *        *--------------------------------------*
// *        |   15.5v hv nmos    |     n155e2r     |
// *        *--------------------------------------*
// *        |   15.5v hv zmos    |     nz155e2r    |
// *        *--------------------------------------*
// *        |   15.5v hv pmos    |     p155e2r     |
// *        *--------------------------------------*
// *
// *       valid temperature range is from -40c to 125c
// *
// *   junction diode:
// *        *--------------------------------------------------------------------*
// *        |junction diode type |   1.8v    |   3.3v    |     5.0v/15.5v hv     |
// *        |====================================================================|
// *        |      n+/pwell      | ndio18e2r |     na    |         na            |
// *        *--------------------------------------------------------------------*
// *        |      n+/tpwell     |     na    | ndio33e2r |         na            |
// *        *--------------------------------------------------------------------*
// *        |      n+/psub       |     na    |     na    | ndio50e2r| ndio155e2r |
// *        *--------------------------------------------------------------------*
// *        |      nz+/psub      |     na    |     na    |nzdio50e2r|nzdio155e2r |
// *        *--------------------------------------------------------------------*
// *        |      p+/nwell      | pdio18e2r |     na    |         na            |
// *        *--------------------------------------------------------------------*
// *        |      p+/dnwell     |     na    | pdio33e2r | pdio50e2r | pdio155e2r|
// *        *--------------------------------------------------------------------*
// *        |     nwell/psub     |                   nwdioe2r                    |
// *        *--------------------------------------------------------------------*
// *        |     dnwell/psub    |                   dnwdioe2r                   |
// *        *--------------------------------------------------------------------*
// *
// *      valid temperature range is from -40c to 125c
// *
// ***********************************************************************************
// *                              1.8v core nmos model                               *
// ***********************************************************************************
model n18e2r bsim3v3 type=n
// *
// * general parameters
// *
+lmin = 1.5e-7 lmax = 1.0e-5 wmin = 1.9e-7 
+wmax = 1.0e-4 tnom = 25.0 version = 3.24 
+tox = 3.87e-09+dtox_n18e2r toxm = 3.87e-09 xj = 1.6000000e-07 
+nch = 3.8694000e+17 lln = 1.1205959 lwn = 0.9200000 
+wln = 1.0599999 wwn = 0.8768474 lint = 1.5757085e-08 
+ll = 2.6352781e-16 lw = -2.2625584e-16 lwl = -2.0576711e-22 
+wint = -1.4450482e-09 wl = -2.3664573e-16 ww = -3.6409690e-14 
+wwl = -4.0000000e-21 mobmod = 1 binunit = 2 
+xl = 1.8e-8+dxl_n18e2r xw = 0.00+dxw_n18e2r dwg = -5.9600000e-09 
+dwb = 4.5000000e-09 
// * diode parameters
+dskip = no ldif = 7.00e-08 hdif = 2.00e-07 
+rsh = 7.08 rd = 0 rs = 0 
+rsc = 1.7 rdc = 1.7 
// *
// * threshold voltage parameters
// *
+vth0 = 0.39+dvth_n18e2r wvth0 = -2.9709472e-08 pvth0 = 5.0000000e-16+dpvth0_n18e2r 
+k1 = 0.6801043 wk1 = -2.4896840e-08 pk1 = 1.3000000e-15 
+k2 = -4.9977830e-02 k3 = 10.0000000 dvt0 = 1.3000000 
+dvt1 = 0.5771635 dvt2 = -0.1717554 dvt0w = 0.00 
+dvt1w = 0.00 dvt2w = 0.00 nlx = 7.5451030e-08 
+w0 = 5.5820150e-07 k3b = -3.0000000 
// *
// * mobility parameters
// *
+vsat = 8.2500000e+04 pvsat = -8.3000000e-10 ua = -1.0300000e-09 
+lua = 7.7349790e-19 pua = -1.0000000e-24 ub = 2.3666682e-18 
+uc = 1.2000000e-10 puc = 1.5000000e-24 rdsw = 55.5497200 
+prwb = -0.2400000 prwg = 0.4000000 wr = 1.0000000 
+u0 = 3.4000000e-02 lu0 = 2.3057663e-11 wu0 = -3.1009695e-09 
+a0 = 0.8300000 keta = -3.0000000e-03 lketa = -1.7000000e-09 
+a1 = 0.00 a2 = 0.9900000 ags = 0.3200000 
+b0 = 6.0000000e-08 b1 = 0.00 
// *
// * subthreshold current parameters
// *
+voff = -0.1030000 lvoff = -3.3000000e-09 nfactor = 1.2500000 
+lnfactor = 4.5000000e-08 cit = 0.00 cdsc = 0.00 
+cdscb = 0.00 cdscd = 1.0000000e-04 eta0 = 2.8000001e-02 
+etab = -2.7000001e-02 dsub = 0.4000000 
// *
// * rout parameters
// *
+pclm = 1.2000000 ppclm = 2.9999999e-15 pdiblc1 = 2.5000000e-02 
+pdiblc2 = 3.8000000e-03 ppdiblc2 = 2.7000001e-16 pdiblcb = 0.00 
+drout = 0.5600000 pscbe1 = 3.4500000e+08 pscbe2 = 1.0000000e-06 
+pvag = 0.00 delta = 1.0000000e-02 alpha0 = 1.7753978e-08 
+alpha1 = 0.1764000 lalpha1 = 7.6250000e-09 beta0 = 11.1683940 
// *
// * temperature effects parameters
// *
+kt1 = -0.2572866 kt2 = -4.0000000e-02 at = 3.7000000e+04 
+pat = -7.5000000e-10 ute = -1.5500000 ua1 = 1.7600000e-09 
+lua1 = 6.0000000e-18 wua1 = -1.1000000e-16 pua1 = -5.0000000e-25 
+ub1 = -2.4000000e-18 uc1 = -1.0000000e-10 luc1 = 1.6999999e-17 
+puc1 = -3.0000000e-24 kt1l = -1.0000000e-09 prt = -55.0000000 
// *
// * noise parameters
// *
+noimod = 2 noia = 8.2282e+19 noib = 1.3327e+04 
+noic = -2.4937e-14 em = 1.7767e+07 ef = 8.1800e-01 
// *
// * capacitance parameters
// *
+cj = 9.68e-04+dcj_n18e2r mj = 0.346 pb = 0.7 
+cjsw = 7.95e-11+dcjsw_n18e2r mjsw = 0.538 pbsw = 1 
+cjswg = 4.18e-10+dcjswg_n18e2r mjswg = 0.538 pbswg = 1 
+tcj = 8.42e-04 tcjsw = 6.69e-04 tcjswg = 6.69e-04 
+tpb = 1.47e-03 tpbsw = 8.68e-04 tpbswg = 8.68e-04 
+js = 3.52e-07 jsw = 3.0e-13 n = 1.0392 
+xti = 3.25 nqsmod = 0 elm = 5 
+cgdo = 3.70e-10+dcgdo_n18e2r cgso = 3.70e-10+dcgso_n18e2r tlevc = 1 
+capmod = 3 xpart = 1 cf = 0.00 
+acde = 0.64 moin = 24 noff = 1.2025 
+dlc = 8.5e-09 dwc = 4.5e-08 
// *
// ***********************************************************************************
// *                              1.8v core pmos model                               *
// ***********************************************************************************
// *
model p18e2r bsim3v3 type=p
// *
// * general parameters
// *
+lmin = 1.5e-7 lmax = 1.0e-5 wmin = 1.9e-7 
+wmax = 1.0e-4 tnom = 25.0 version = 3.24 
+tox = 3.74e-09+dtox_p18e2r toxm = 3.74e-09 xj = 1.7000001e-07 
+nch = 5.5000000e+17 lln = 1.0000000 lwn = 1.0000000 
+wln = 1.0450000 wwn = 1.0000000 lint = 1.0000000e-08 
+ll = 3.4000000e-15 lw = -3.3600000e-16 lwl = 0.00 
+wint = 8.0000010e-09 wl = 3.5904200e-15 ww = -1.8999999e-15 
+wwl = -1.1205000e-21 mobmod = 1 binunit = 2 
+xl = -5.7e-09+dxl_p18e2r xw = 0.00+dxw_p18e2r dwg = -1.7361970e-08 
+dwb = 2.0000000e-08 
// * diode parameters
+dskip = no ldif = 7.00e-08 hdif = 2.00e-07 
+rsh = 7.83 rd = 0 rs = 0 
+rsc = 1.5 rdc = 1.5 
// *
// * threshold voltage parameters
// *
+vth0 = -0.402+dvth_p18e2r wvth0 = 1.2675420e-08 pvth0 = -1.2500000e-15+dpvth0_p18e2r 
+k1 = 0.5872390 lk1 = 3.5532110e-09 k2 = 7.0906860e-03 
+k3 = 2.5999999 dvt0 = 0.7194931 dvt1 = 0.2467441 
+dvt2 = 7.8089680e-02 dvt0w = 0.00 dvt1w = 8.0000000e+05 
+dvt2w = 0.00 nlx = 9.0000000e-08 w0 = 0.00 
+k3b = 2.4862001 ngate = 3.1680000e+20 
// *
// * mobility parameters
// *
+vsat = 1.0000000e+05 ua = 2.8500000e-10 lua = 5.5000000e-18 
+pua = -2.0000000e-24 ub = 1.0000000e-18 uc = -4.7700000e-11 
+wuc = 3.1668000e-17 puc = -2.5000000e-24 rdsw = 4.5500000e+02 
+prwb = -0.4000000 prwg = 0.00 wr = 1.0000000 
+u0 = 8.6610000e-03 lu0 = -2.0000000e-11 wu0 = 1.3815350e-10 
+a0 = 1.0000000 keta = 2.0000000e-02 lketa = -8.5000000e-09 
+pketa = 5.0000000e-16 a1 = 0.00 a2 = 0.9900000 
+ags = 0.2000000 b0 = 6.3000000e-08 b1 = 0.00 
// *
// * subthreshold current parameters
// *
+voff = -9.5000000e-02 lvoff = -1.7000000e-09 wvoff = -1.9999999e-09 
+pvoff = -1.0000000e-16 nfactor = 0.9000000 lnfactor = 1.0000000e-07 
+pnfactor = -5.0000000e-15 cit = 0.00 cdsc = 0.00 
+cdscb = 0.00 cdscd = 0.00 eta0 = 4.0000000e-02 
+etab = -2.5000000e-02 dsub = 0.5600000 
// *
// * rout parameters
// *
+pclm = 0.7000000 pdiblc1 = 0.00 pdiblc2 = 7.0000000e-03 
+pdiblcb = 0.00 drout = 0.5600000 pscbe1 = 4.0000000e+08 
+pscbe2 = 1.0000000e-07 pvag = 0.00 delta = 1.0000000e-02 
+alpha0 = 7.0000000e-08 alpha1 = 7.0491700 beta0 = 22.8424000 
+lbeta0 = -7.5000000e-08 
// *
// * temperature effects parameters
// *
+kt1 = -0.2577007 kt2 = -3.0979900e-02 lkt2 = -3.0000000e-09 
+pkt2 = -6.5331750e-16 at = 1.0000000e+04 pat = -1.0000000e-09 
+ute = -1.2703574 ua1 = 5.3866300e-10 wua1 = 1.1000000e-16 
+pua1 = -2.3700001e-24 ub1 = -2.0709999e-18 uc1 = 2.0609721e-11 
+kt1l = -8.0000000e-09 prt = 90.0000000 
// *
// * noise parameters
// *
+noimod = 2 noia = 3.3617e+18 noib = 1.9536e+05 
+noic = 5.2658e-12 em = 6.2548e+07 ef = 1.1307e+00 
// *
// * capacitance parameters
// *
+cj = 0.00107+dcj_p18e2r mj = 0.415 pb = 0.817 
+cjsw = 9.89e-11+dcjsw_p18e2r mjsw = 0.489 pbsw = 1 
+cjswg = 5.07e-10+dcjswg_p18e2r mjswg = 0.489 pbswg = 1 
+tpb = 0.00153 tpbsw = 0.00117 tpbswg = 0.00117 
+tcj = 0.000876 tcjsw = 0.000745 tcjswg = 0.000745 
+js = 1.66e-07 jsw = 1.2e-13 n = 1.0384 
+xti = 4.5 nqsmod = 0 elm = 5 
+cgdo = 4.20e-10+dcgdo_p18e2r cgso = 4.20e-10+dcgso_p18e2r tlevc = 1 
+capmod = 3 xpart = 1 cf = 0.00 
+acde = 0.8505076 moin = 14.95341 noff = 1.431824 
+dlc = -1.5e-09 
// *
// ***********************************************************************************
// *                              1.8v native nmos model                               *
// ***********************************************************************************
model nz18e2r bsim3v3 type=n
+lmin = 5.e-07 lmax = 1.e-05 
+wmin = 2.2e-07 wmax = 1.e-04 version = 3.2 
+mobmod = 1 capmod = 3 nqsmod = 0 
+binunit = 2 tnom = 25 xl = 2.5e-08+dxl_nz18e2r 
+xw = 0+dxw_nz18e2r tox = 4.3e-09+dtox_nz18e2r toxm = 4.3e-09 
+wint = 1.1213e-08 lint = 4.754e-08 hdif = 2.e-07 
+ldif = 7.e-08 ll = 0 wl = 0 
+lln = 1 wln = 1.0436 lw = 0 
+ww = 0 lwn = 1.01 wwn = 1 
+lwl = 2.68e-22 wwl = 1.1674e-21 cgso = 2.66e-10+dcgso_nz18e2r 
+cgdo = 2.66e-10+dcgdo_nz18e2r xpart = 1 vth0 = -0.014963+dvth0_nz18e2r 
+k1 = 0.037605 k2 = -5.e-03 k3 = 45.06 
+k3b = -14.24 nlx = 9.1336e-06 dvt0 = 1.5378 
+dvt1 = 0.60438 dvt2 = 0.046115 dvt0w = 1.2039 
+dvt1w = 6.948500e+06 dvt2w = -0.1 nch = 4.444e+16 
+voff = -0.10606 nfactor = 1.2634 cdsc = 0.030155 
+cdscb = -8.8e-04 cdscd = 0 cit = -4.9e-04 
+u0 = 0.056135 ua = 1.0668e-09 ub = 2.1704e-18 
+uc = 1.24e-13 xj = 1.6e-07 w0 = 2.5e-06 
+prwg = -4.e-04 prwb = 0 wr = 1.1074 
+rdsw = 222.97 prdsw = -2.1343e-11 a0 = 5.8515 
+pa0 = -2.06e-12 ags = 1.467 a1 = 0.18053 
+a2 = 0.45264 b0 = 2.5655e-06 b1 = 6.4902e-07 
+vsat = 1.16530e+05+dvsat_nz18e2r keta = -7.6704e-03 dwg = 4.8328e-10 
+dwb = 2.1336e-09 alpha0 = 9.38e-09 beta0 = 5.891517 
+pclm = 0.754 pdiblc1 = 0.2223 pdiblc2 = 0.17516 
+pdiblcb = 0.056643 drout = 0.56 pvag = 2.0513 
+pscbe1 = 5.9189e+08 pscbe2 = 6.e-06 delta = 0.01 
+eta0 = 0.1144 etab = -8.004e-03 dsub = 0.3495 
+elm = 5 alpha1 = 0.010386 cf = 0 
+acde = 0.64 moin = 24 noff = 2.5 
+kt1 = -0.18004 kt1l = -7.4e-15 kt2 = 1.13e-03 
+ute = -1.4067 wute = -1.1e-09 ua1 = 4.013e-09 
+wua1 = -2.07364e-16 pua1 = 6.e-23 ub1 = -7.4902e-18 
+wub1 = -1.77082e-26 uc1 = -6.6e-11 prt = 21.4 
+at = 2.4052e+04 rsh = 7.08 js = 5.2e-06 
+jsw = 1.e-13 cj = 1.45e-04+dcj_nz18e2r mj = 0.334 
+cjsw = 1.63e-10+dcjsw_nz18e2r mjsw = 0.0689 pb = 0.538 
+rd = 0 rdc = 1 rs = 0 
+rsc = 1 xti = 3 dskip = no 
+n = 1.0651 pbsw = 0.563 
+cjswg = 6.6e-11+dcjswg_nz18e2r pbswg = 0.563 mjswg = 0.0689 
+cta = 2.46e-03 ctp = 1.22e-03 tcjswg = 1.22e-03 
+pta = 2.77e-03 ptp = 2.04e-03 tpbswg = 2.04e-03 
// *
// ************************************************************************************
// *                        3.3v mv nmos model                                        *
// ************************************************************************************
// *
model n33e2r bsim3v3 type=n
// **************************************************************
// *               model flag parameters
// **************************************************************
+lmin = 6e-007 lmax = 1e-005 wmin = 6e-007 
+wmax = 0.0001 version = 3.2 mobmod = 1 
+capmod = 3 nqsmod = 0 binunit = 2 
+binflag = 0 
// **************************************************************
// *               general model parameters
// **************************************************************
+tnom = 25 xl = 0+dxl_n33e2r xw = 0+dxw_n33e2r 
+lmlt = 1 wmlt = 1 
+tox = 8.35e-009+dtox_n33e2r toxm = 8.35e-009 wint = 9.5e-008 
+lint = 0 
+hdif = 4.1e-007 ldif = 9e-008 ll = 6.2215e-014 
+wl = 0 lln = 0.95 wln = 1.05 
+lw = 0 ww = -3.2701e-015 lwn = 1 
+wwn = 1.1 lwl = 0 wwl = -1.025e-021 
+cgbo = 0 cgso = 2.55e-10+dcgso_n33e2r cgdo = 2.55e-10+dcgdo_n33e2r 
+xpart = 1 
// **************************************************************
// *               expert parameters
// **************************************************************
+vth0 = 0.838+dvth_n33e2r pvth0 = 4.19e-015 k1 = 0.93 
+lk1 = -5.3658e-008 pk1 = -1.5e-014 k2 = -0.02 
+k3 = -2.8099 k3b = 0.5 nlx = 0 
+dvt0 = 1.8 dvt1 = 0.49 dvt2 = 0.077 
+dvt0w = 0 dvt1w = 0 dvt2w = 0 
+nch = 1e+017 voff = -0.18 nfactor = 1.8 
+cdsc = 0 cdscb = 0 cdscd = 0 
+cit = 0 u0 = 0.03 lu0 = 7.2953e-009 
+pu0 = 1.0052e-014 ua = -1.1762e-009 lua = 3.8e-017 
+wua = 1.5632e-017 pua = 1.07e-021 ub = 2.1721e-018 
+wub = -1.5264e-025 pub = -1.2922e-030 uc = 6.557e-011 
+wuc = -1.82e-017 puc = -3.5401e-023 ngate = 1e+022 
+xj = 2.000001e-007 w0 = 0 prwg = 0.00049208 
+prwb = 0.023437 wr = 1 rdsw = 860 
+a0 = 0.6484 wa0 = 3.73e-008 ags = 0.054918 
+a1 = 0 a2 = 0.99 b0 = 0 
+b1 = 0 vsat = 94000+dvsat_n33e2r wvsat = 0.014252 
+pvsat = -1.9392e-010 keta = 0.022134 lketa = -2.5233e-008 
+pketa = 6.0424e-015 dwg = 1.59e-009 dwb = 0 
+alpha0 = 1.2787287e-006 lalpha0 = -5.8102566e-015 beta0 = 26.773083 
+pclm = 0.7 pdiblc1 = 0.05 pdiblc2 = 0.00014 
+pdiblcb = -0.1513672 drout = 0.56 pvag = 0 
+pscbe1 = 5e+008 pscbe2 = 1e-006 delta = 0.01 
+eta0 = 1.2334e-005 etab = 0 dsub = 0.56 
+elm = 5 alpha1 = 3.0535065 
// **************************************************************
// *               capacitance parameters
// **************************************************************
+clc = 1e-007 cle = 0.6 cf = 0 
+ckappa = 0.6 cgdl = 0 cgsl = 0 
+vfbcv = 0 acde = 0.4 moin = 10 
+noff = 1.5 voffcv = -0.1 
// **************************************************************
// *               temperature parameters
// **************************************************************
+kt1 = -0.38 wkt1 = -4.0297e-009 pkt1 = 1.0221e-014 
+kt1l = -2.5504e-009 kt2 = -0.0337249 lkt2 = 3.5293e-009 
+ute = -1.1147124 ua1 = 1.58076e-009 lua1 = 7.957e-017 
+wua1 = -1.815e-016 pua1 = 1.4136e-022 ub1 = -1.1798384e-018 
+lub1 = -2.677e-027 uc1 = 2.5784633e-011 luc1 = 8.08e-018 
+wuc1 = -4.0118e-017 prt = 0 at = 38000 
+wat = 0.04 pat = -1.9609e-008 
// **************************************************************
// *               noise parameters
// **************************************************************
// **************************************************************
// *               diode parameters
// **************************************************************
+rsh = 7.08 js = 1.6626e-07 jsw = 5.19e-13 
+cj = 9.94e-04+dcj_n33e2r mj = 0.324 cjsw = 5.25e-11+dcjsw_n33e2r 
+mjsw = 0.113 pb = 0.724 rd = 0 
+rdc = 1.7 rs = 0 rsc = 1.7 
+xti = 3 dskip = no 
+n = 0.982 pbsw = 0.892 cjswg = 3.23e-10+dcjswg_n33e2r 
+pbswg = 0.784 mjswg = 0.404 tcj = 8.75e-04 
+tcjsw = 6.47e-04 tcjswg = 1.13e-03 tpb = 1.52e-03 
+tpbsw = 1.01e-03 tpbswg = 1.86e-03 
// *
// ************************************************************************************
// *                        3.3v mv pmos model                                        *
// ************************************************************************************
// *
model p33e2r bsim3v3 type=p
// **************************************************************
// *               model flag parameters
// **************************************************************
+lmin = 8e-007 lmax = 1e-005 wmin = 6e-007 
+wmax = 0.0001 version = 3.2 mobmod = 1 
+capmod = 3 nqsmod = 0 binunit = 2 
+binflag = 0 
// **************************************************************
// *               general model parameters
// **************************************************************
+tnom = 25 xl = 0+dxl_p33e2r xw = 0+dxw_p33e2r 
+lmlt = 1 wmlt = 1 
+tox = 8.6e-009+dtox_p33e2r 
+toxm = 8.6e-009 wint = 1.001e-007 lint = 1.2540499e-007 
+hdif = 4.1e-007 
+ldif = 9e-008 ll = -4.47e-014 wl = 0 
+lln = 0.99843 wln = 0.95524 lw = 0 
+ww = -2.873e-014 lwn = 1 wwn = 1.0326 
+lwl = 0 wwl = -2.8607e-021 cgbo = 0 
+cgso = 1.35e-010+dcgso_p33e2r cgdo = 1.35e-010+dcgdo_p33e2r xpart = 1 
// **************************************************************
// *               expert parameters
// **************************************************************
+vth0 = -1.0021+dvth_p33e2r lvth0 = 3.3775e-008 pvth0 = -3.8906e-015 
+k1 = 0.2913 k2 = -0.0045265 pk2 = 4.1e-016 
+k3 = 0.385 k3b = -0.9699 nlx = 0 
+dvt0 = 10 dvt1 = 0.74378 dvt2 = 0.022 
+dvt0w = 0.131 dvt1w = 0 dvt2w = 0 
+nch = 1e+017 voff = -0.10196 nfactor = 0.5 
+pnfactor = -1.745e-013 cdsc = 0 cdscb = 0 
+cdscd = 0 cit = 0 lcit = 6e-010 
+u0 = 0.025702 wu0 = -5.4842e-009 ua = 2.4043e-009 
+wua = -9.7015e-016 pua = 2.1474e-022 ub = 1.485e-018 
+pub = -1.8768e-031 uc = -2.1216e-011 puc = -3.06e-024 
+ngate = 9e+021 xj = 2e-007 w0 = 0 
+prwg = -0.10032 prwb = 0.05557 wr = 1 
+rdsw = 2245 a0 = 0.6 pa0 = -2.25e-014 
+ags = 0.525 a1 = 0 a2 = 0.99 
+b0 = 1.1e-006 b1 = 2.1000001e-006 vsat = 135000+dvsat_p33e2r 
+pvsat = 5.6e-008 keta = -0.016000001 lketa = 5.5e-009 
+wketa = 3e-009 pketa = -5e-016 dwg = -1e-009 
+dwb = 1.746924e-009 alpha0 = 1e-010 lalpha0 = 1.6e-017 
+beta0 = 15 pclm = 1.318157 pdiblc1 = 0 
+pdiblc2 = 0.0005 wpdiblc2 = 2e-010 pdiblcb = -0.0008 
+drout = 0.56 pvag = 0 pscbe1 = 8e+008 
+pscbe2 = 1.4e-006 delta = 0.01 eta0 = 0.75 
+peta0 = -5e-014 etab = 0 dsub = 0.56 
+elm = 5 alpha1 = 0 
// **************************************************************
// *               capacitance parameters
// **************************************************************
+clc = 1e-007 cle = 0.6 cf = 0 
+ckappa = 0.6 cgdl = 0 cgsl = 0 
+vfbcv = -0.0708 acde = 0.41 moin = 5 
+noff = 2.8295 voffcv = 0.010078 
// **************************************************************
// *               temperature parameters
// **************************************************************
+kt1 = -0.4334855 kt1l = -3.4191e-008 kt2 = -0.019677751 
+ute = -1.2428 ua1 = 2.9431719e-009 lua1 = 1.8722e-015 
+wua1 = -5.12e-016 pua1 = -1.16e-021 ub1 = -6.1147e-018 
+lub1 = -3.5457e-024 wub1 = 1.125e-024 pub1 = 2.246e-030 
+uc1 = -6.393686e-011 prt = 0 at = 10000 
// **************************************************************
// *               noise parameters
// **************************************************************
// **************************************************************
// *               diode parameters
// **************************************************************
+rsh = 7.83 js = 1.566e-07 jsw = 3.32e-13 
+cj = 5.38e-04+dcj_p33e2r mj = 0.352 cjsw = 7.25e-11+dcjsw_p33e2r 
+mjsw = 0.142 pb = 0.727 rd = 0 
+rdc = 4 rs = 0 rsc = 4 
+xti = 3 dskip = no 
+n = 0.986 pbsw = 0.412 cjswg = 1.52e-10+dcjswg_p33e2r 
+pbswg = 0.336 mjswg = 0.288 tcj = 1.15e-03 
+tcjsw = 1.02e-03 tcjswg = 1.42e-03 tpb = 1.72e-03 
+tpbsw = 1.61e-03 tpbswg = 1.15e-03 
// *
// **************************************************************************
// *                                 5v hv nmos model                       *
// **************************************************************************
// *
model n50e2r bsim3v3 type=n
// *
// *model flag parameters
// *
+lmin = 1.4e-006 lmax = 1e-005 wmin = 6e-007 
+wmax = 0.0001 version = 3.2 mobmod = 1 
+capmod = 3 nqsmod = 0 binunit = 2 
+binflag = 0 
// *
// *general model parameters
// *
+tnom = 25 xl = 0+dxl_n50e2r xw = 0+dxw_n50e2r 
+lmlt = 1 wmlt = 1 
+tox = 2.75e-008+dtox_n50e2r 
+toxm = 2.75e-008 wint = 1.15e-007 lint = 1.85e-007 
+hdif = 5e-007 
+ldif = 9e-008 ll = 0 wl = 0 
+lln = 1 wln = 1 lw = 0 
+ww = -5e-015 lwn = 1 wwn = 1.1391187 
+lwl = 0 wwl = 0 cgbo = 0 
+cgso = 4.21e-010+dcgso_n50e2r cgdo = 4.21e-010+dcgdo_n50e2r xpart = 1 
// *
// *expert parameters
// *
+vth0 = 0.713+dvth_n50e2r wvth0 = -5.3e-008 pvth0 = -1.8000001e-014 
+k1 = 0.9465 k2 = -0.0986 lk2 = -6.5e-008 
+wk2 = 4.7625e-008 pk2 = 1e-014 k3 = 4.3 
+k3b = 0.25 nlx = 5.7e-008 dvt0 = 0 
+dvt1 = 0 dvt2 = 0 dvt0w = 0 
+dvt1w = 0 dvt2w = 0 nch = 5.97e+016 
+voff = -0.11 nfactor = 1.11 cdsc = 0 
+cdscb = 1e-005 cdscd = 0 cit = 0 
+u0 = 0.055 pu0 = 6e-015 ua = 9e-010 
+lua = -3.3505e-016 pua = 1e-021 ub = 6.5024e-019 
+lub = 9.0597e-025 pub = -2.1156e-030 uc = 1.02e-012 
+wuc = 1e-017 puc = -7.999999e-024 ngate = 4.5e+021 
+xj = 3.0000001e-007 w0 = 2.45e-007 prwg = 0 
+prwb = 0 wr = 1 rdsw = 720 
+a0 = 0.57 wa0 = 7.5e-008 pa0 = -3.5e-013 
+ags = 0.08 lags = 1e-007 wags = 1.2e-008 
+pags = 4.628299e-014 a1 = 0 a2 = 1 
+b0 = 2e-008 b1 = 0 vsat = 98000+dvsat_n50e2r 
+lvsat = -0.0156 pvsat = 6.396302e-009 keta = -0.0085 
+lketa = 5.8e-009 wketa = 6.535e-009 pketa = -1.8e-014 
+dwg = 7.1741e-010 dwb = 5.06e-009 alpha0 = 3.315e-007 
+beta0 = 29.821 pclm = 1.95 pdiblc1 = 0.192279 
+pdiblc2 = 0.0046 pdiblcb = -0.029999999 drout = 0.56 
+pvag = 0 pscbe1 = 1.6343656e+008 pscbe2 = 1.123695e-006 
+delta = 0.007 eta0 = 0.11 etab = 0 
+dsub = 0.56 elm = 5 alpha1 = 0.64984 
// *
// *capacitance parameters
// *
+clc = 1e-007 cle = 0.6 cf = 0 
+ckappa = 0.6 cgdl = 0 cgsl = 0 
+vfbcv = -1 acde = 0.42 moin = 19 
+noff = 1.6 voffcv = -0.075 
// *
// *temperature parameters
// *
+kt1 = -0.448223 lkt1 = 1.8599999e-007 wkt1 = -1e-008 
+pkt1 = 1.5366973e-014 kt1l = -2.15e-007 kt2 = -0.04015683 
+lkt2 = 1.0000002e-008 wkt2 = 3.38642e-008 pkt2 = -3.791951e-014 
+ute = -1.255 ua1 = 4.31e-009 lua1 = 6.799997e-016 
+wua1 = -1.0559e-015 ub1 = -9.49695e-018 wub1 = 1.4e-024 
+uc1 = 1.38999e-011 luc1 = 2.5999997e-017 wuc1 = -2.0695e-017 
+puc1 = 2.2999999e-023 prt = 0 at = 17000 
+wat = 0.04 pat = -3.4e-008 
// *
// *noise parameters
// *
// *
// *diode parameters
// *
+rsh = 7.08 js = 1.7535e-06 jsw = 1.55e-12 
+cj = 2.09e-04+dcj_n50e2r mj = 0.583 cjsw = 1.18e-10+dcjsw_n50e2r 
+mjsw = 0.101 pb = 0.619 rd = 0 
+rdc = 0 rs = 0 rsc = 0 
+xti = 3 dskip = no 
+n = 1.013 pbsw = 0.998 cjswg = 1.94e-10+dcjswg_n50e2r 
+pbswg = 0.791 mjswg = 0.471 tcj = 2.32e-03 
+tcjsw = 4.25e-04 tcjswg = 1.61e-03 tpb = 1.75e-03 
+tpbsw = 1.61e-03 tpbswg = 2.61e-03 
// *
// ************************************************************************************
// *                                5v hv zmos model                                  *
// ************************************************************************************
// *
model nz50e2r bsim3v3 type=n
// **************************************************************
// *               model flag parameters
// **************************************************************
+lmin = 1.8e-006 lmax = 1e-005 wmin = 6e-007 
+wmax = 1e-004 version = 3.2 mobmod = 1 
+capmod = 3 nqsmod = 0 binunit = 2 
+binflag = 0 
// **************************************************************
// *               general model parameters
// **************************************************************
+tnom = 25 xl = 0+dxl_nz50e2r xw = 0+dxw_nz50e2r 
+lmlt = 1 wmlt = 1 
+tox = 2.73e-008+dtox_nz50e2r 
+toxm = 2.73e-008 wint = 1.032e-007 lint = 2.2125e-007 
+hdif = 5e-007 
+ldif = 9e-008 ll = 3.813e-014 wl = 0 
+lln = 1.0362 wln = 1 lw = 0 
+ww = -5.3733e-016 lwn = 1 wwn = 1.3004 
+lwl = 0 wwl = 0 cgbo = 0 
+cgso = 5.53e-010+dcgso_nz50e2r cgdo = 5.53e-010+dcgdo_nz50e2r xpart = 1 
// **************************************************************
// *               expert parameters
// **************************************************************
+vth0 = 0.31147+dvth_nz50e2r lvth0 = -3.9726e-008 pvth0 = 3.07e-014 
+k1 = 0.34882 k2 = -0.051019 k3 = 1.946 
+k3b = -9.9981 nlx = 0 dvt0 = 0.83143 
+dvt1 = 0.41235 dvt2 = -0.0305 dvt0w = 0 
+dvt1w = 0 dvt2w = 0 nch = 4.7142e+016 
+voff = -0.073261 nfactor = 0.64 cdsc = 0 
+cdscb = 0 cdscd = 0 cit = 0 
+u0 = 0.062265 ua = 1.7247e-009 lua = 3.9218e-016 
+wua = 1.1032e-016 pua = 1.461e-022 ub = 1.5865e-019 
+lub = -4.3905e-024 uc = -1.953e-011 puc = -2.18e-023 
+ngate = 8.1579e+022 xj = 3.0000001e-007 w0 = 1e-006 
+prwg = -0.0003405154 prwb = 0 wr = 1 
+rdsw = 1200 a0 = 0.65998 la0 = -2.522e-006 
+pa0 = 1.6026e-012 ags = 0.28147 wags = -1.5095e-007 
+a1 = 0 a2 = 1 b0 = 0 
+b1 = 0 vsat = 113260+dvsat_nz50e2r lvsat = -0.046604 
+pvsat = 1.3943e-008 keta = -0.0117 lketa = 1.1826e-008 
+wketa = 7.381e-009 pketa = -4.8766e-015 dwg = 0 
+dwb = 4.8846e-009 alpha0 = 3.3539e-007 beta0 = 28.264 
+pclm = 1.6928 pdiblc1 = 0.29888 pdiblc2 = 0.0028728 
+pdiblcb = 1.4e-011 drout = 0.56 pvag = 0 
+pscbe1 = 2.7059e+008 pscbe2 = 3.972e-008 delta = 0.01 
+eta0 = 0.61122 etab = -0.012563 dsub = 0.56 
+elm = 5 alpha1 = 0.1 
// **************************************************************
// *               capacitance parameters
// **************************************************************
+clc = 1e-007 cle = 0.6 cf = 0 
+ckappa = 0.6 cgdl = 0 cgsl = 0 
+vfbcv = -1 acde = 0.4176 moin = 7.5 
+noff = 2.3287 voffcv = -0.10163 
// **************************************************************
// *               temperature parameters
// **************************************************************
+kt1 = -0.39675 pkt1 = -5.6e-014 kt1l = 6.321e-008 
+kt2 = -0.0121 ute = -1.6372 ua1 = 1.1034e-009 
+wua1 = -1.482e-015 pua1 = 6.372e-022 ub1 = 2.5275e-018 
+uc1 = 8.3194e-013 prt = 0 at = 10899 
// **************************************************************
// *               noise parameters
// **************************************************************
// **************************************************************
// *               diode parameters
// **************************************************************
+rsh = 7.08 js = 1.9321e-06 jsw = 1.32e-12 
+cj = 1.29e-04+dcj_nz50e2r mj = 0.37 cjsw = 1.31e-10+dcjsw_nz50e2r 
+mjsw = 0.154 pb = 0.553 rd = 0 
+rdc = 2.4 rs = 0 rsc = 2.4 
+xti = 3 dskip = no 
+n = 1.006 pbsw = 0.597 cjswg = 1.15e-10+dcjswg_nz50e2r 
+pbswg = 0.268 mjswg = 0.396 tcj = 2.11e-03 
+tcjsw = 9.80e-04 tcjswg = 3.72e-03 tpb = 2.07e-03 
+tpbsw = 2.12e-03 tpbswg = 1.42e-03 
// *
// ************************************************************************************
// *                              5v hv pmos model                                 *
// ************************************************************************************
model p50e2r bsim3v3 type=p
// **************************************************************
// *               model flag parameters
// **************************************************************
+lmin = 1e-006 lmax = 1e-005 wmin = 6e-007 
+wmax = 1e-004 version = 3.2 mobmod = 1 
+capmod = 3 nqsmod = 0 binunit = 2 
+binflag = 0 
// **************************************************************
// *               general model parameters
// **************************************************************
+tnom = 25 xl = 0+dxl_p50e2r xw = 0+dxw_p50e2r 
+lmlt = 1 wmlt = 1 tox = 2.76e-008+dtox_p50e2r 
+toxm = 2.76e-008 wint = 1.4748e-007 lint = 8.7e-008 
+hdif = 5e-007 
+ldif = 9e-008 ll = -6.7639e-015 wl = 0 
+lln = 0.8945 wln = 0.90128 lw = 0 
+ww = 1.1603e-015 lwn = 1 wwn = 1.008 
+lwl = 0 wwl = -1.3903e-019 cgbo = 0 
+cgso = 2.62e-010+dcgso_p50e2r cgdo = 2.62e-010+dcgdo_p50e2r xpart = 1 
// **************************************************************
// *               expert parameters
// **************************************************************
+vth0 = -0.948+dvth_p50e2r lvth0 = 4.5336e-008 wvth0 = 3.8784e-008 
+pvth0 = 1.9759e-015 k1 = 0.54 pk1 = 6.5656e-015 
+k2 = 0.0707 k3 = 1.955 k3b = -0.50391 
+nlx = 0 dvt0 = 1.2 dvt1 = 0.66 
+dvt2 = -0.057 dvt0w = 0.02516 dvt1w = 1e-010 
+dvt2w = 0 nch = 4.2069e+016 voff = -0.17 
+nfactor = 1 cdsc = 0.0004 cdscb = 8e-005 
+cdscd = 0 cit = 0.00019999999 u0 = 0.0263 
+wu0 = 6.722e-010 pu0 = -3.0732e-015 ua = 4.4395e-009 
+wua = -1.0327e-015 pua = -3.1473e-022 ub = 2.0794e-019 
+wub = 6.0361e-025 uc = -5.0558e-011 wuc = -1.778e-017 
+puc = -1.356e-023 ngate = 9.1695e+021 xj = 3.0000001e-007 
+w0 = 0 prwg = 0.003948819 prwb = 0 